25
-0.861984326734967
C             0.697092438124      1.206228481101                   0
H             1.238751481843      2.142336379831      0.004928675883
C             1.394066202537                   0                   0
H             2.475325479251      0.000114333064      0.010977564436
C             0.696663336265       -1.2063436648     -0.001377484826
H             1.238021589736     -2.142768045099      0.001261014205
C             -0.69694068372     -1.206903024974     -0.000507818264
H            -1.237799125947      -2.14373787832      -0.00169760104
C            -1.394117326826      0.000170803848      0.001981006868
H            -2.475865900014      0.000265443726      0.001461018677
C             -0.69676396638      1.206847404824      -9.5703779e-05
H            -1.237425243665      2.143795338383     -0.000181194041
C              1.18371079528              1.8118      5.027447238892
C            -0.024298232838              1.8273       5.72431422619
C            -0.639376269525               0.626      6.078967816029
C            -0.046035470473             -0.5904       5.73686422619
C             1.163062788129             -0.6082      5.039483841433
C             1.767931532673               0.596      4.690147238892
H             1.667622585834              2.7432      4.748407046514
H            -0.484690734949               2.775       5.98989102111
H            -0.527235787356             -1.5246      6.014800828731
H             1.612903177774              -1.561      4.780230251594
O             2.948507170733               0.626       4.00796422619
H             3.230153695553              -0.288      3.840390316954
H            -1.580959280898              0.6382      6.621898200787
