25
-0.0122914580542026
C             0.697092438124      1.206228481101                   0
H             1.238751481843      2.142336379831      0.004928675883
C             1.394066202537                   0                   0
H             2.475325479251      0.000114333064      0.010977564436
C             0.696663336265       -1.2063436648     -0.001377484826
H             1.238021589736     -2.142768045099      0.001261014205
C             -0.69694068372     -1.206903024974     -0.000507818264
H            -1.237799125947      -2.14373787832      -0.00169760104
C            -1.394117326826      0.000170803848      0.001981006868
H            -2.475865900014      0.000265443726      0.001461018677
C             -0.69676396638      1.206847404824      -9.5703779e-05
H            -1.237425243665      2.143795338383     -0.000181194041
C                     7.7496      -1.21481079528      4.186635173423
C                     7.7491     -0.014801767162      3.475911779665
C                     7.7487      1.200726269525      4.161268097231
C                     7.7491      1.215785470473      5.557151398394
C                     7.7497      0.015887211871      6.270466650582
C                     7.7496     -1.191131532673      5.576848859344
H                     7.7499     -2.164272585834      3.659319112339
H                     7.7489     -0.028359265051      2.389429504498
H                     7.7492      2.164135787356       6.08834233061
H                     7.7501      0.042646822226      7.355215655308
O                     7.7491     -2.386957170733      6.232618097231
H                     7.7448     -2.213753695553       7.18801531629
H                     7.7481      2.135909280898      3.607252587305
