25
-0.0714108379920402
C             0.697092438124      1.206228481101                   0
H             1.238751481843      2.142336379831      0.004928675883
C             1.394066202537                   0                   0
H             2.475325479251      0.000114333064      0.010977564436
C             0.696663336265       -1.2063436648     -0.001377484826
H             1.238021589736     -2.142768045099      0.001261014205
C             -0.69694068372     -1.206903024974     -0.000507818264
H            -1.237799125947      -2.14373787832      -0.00169760104
C            -1.394117326826      0.000170803848      0.001981006868
H            -2.475865900014      0.000265443726      0.001461018677
C             -0.69676396638      1.206847404824      -9.5703779e-05
H            -1.237425243665      2.143795338383     -0.000181194041
C             1.418358158748      2.324764826577      9.223817586712
C             0.811036657391      1.640888220335      8.170905889832
C             0.804269049209      0.245531902769      8.158384048615
C             1.404593038573     -0.465451398394      9.198975699197
C             2.012922552632      0.217033349418     10.253833325291
C             2.014418527444      1.609151140656     10.256224429672
H             1.427129246403      3.410680887661      9.239609556169
H             0.344138611416      2.195870495502      7.361814752249
H             1.397431277591      -1.55234233061      9.186771165305
H             2.475596337293     -0.348515655308     11.056007827654
O             2.597764359176      2.316881902769     11.265609048615
H             2.971886530822       1.68918468371     11.905007658145
H             0.331097158764     -0.287352587305      7.337626293652
