25
-0.632231632748757
C             0.697092438124      1.206228481101                   0
H             1.238751481843      2.142336379831      0.004928675883
C             1.394066202537                   0                   0
H             2.475325479251      0.000114333064      0.010977564436
C             0.696663336265       -1.2063436648     -0.001377484826
H             1.238021589736     -2.142768045099      0.001261014205
C             -0.69694068372     -1.206903024974     -0.000507818264
H            -1.237799125947      -2.14373787832      -0.00169760104
C            -1.394117326826      0.000170803848      0.001981006868
H            -2.475865900014      0.000265443726      0.001461018677
C             -0.69676396638      1.206847404824      -9.5703779e-05
H            -1.237425243665      2.143795338383     -0.000181194041
C              6.82959460236       0.78518920472      4.189829652181
C             7.445349116419      1.985198232838      4.544758336358
C             6.852013134762      3.200726269525      4.201733767413
C             5.642942735236      3.215785470473      3.504138526993
C             5.024893605935      2.015887211871      3.148000516142
C             5.625634233664      0.808868467327       3.49472280922
H             7.286113707083     -0.164272585834      4.453747490344
H             8.386370367475      1.971640734949      5.087826268861
H             5.182867893678      4.164135787356      3.238629663426
H             4.085273411113      2.042646822226      2.605972423941
O             5.057971414634     -0.386957170733      3.166405177575
H             4.232723152223     -0.213753695553      2.684982658809
H             7.332104640449      4.135909280898      4.478221907134
