25
-0.0907313380749103
C             0.697092438124      1.206228481101                   0
H             1.238751481843      2.142336379831      0.004928675883
C             1.394066202537                   0                   0
H             2.475325479251      0.000114333064      0.010977564436
C             0.696663336265       -1.2063436648     -0.001377484826
H             1.238021589736     -2.142768045099      0.001261014205
C             -0.69694068372     -1.206903024974     -0.000507818264
H            -1.237799125947      -2.14373787832      -0.00169760104
C            -1.394117326826      0.000170803848      0.001981006868
H            -2.475865900014      0.000265443726      0.001461018677
C             -0.69676396638      1.206847404824      -9.5703779e-05
H            -1.237425243665      2.143795338383     -0.000181194041
C              4.11189460236       1.40301079528      1.620764825604
C             4.704399116419      0.187501767162      1.962270116023
C             5.913013134762      0.173273730475      2.659601864644
C             6.528542735236      1.374614529527      3.015439925388
C             5.937193605935      2.592312788129      2.674717166724
C             4.731634233664      2.595131532673      1.978571668565
H             3.171313707083      1.421072585834      1.078066602683
H             4.223870367475     -0.746640734949      1.684605773359
H             7.469767893678      1.360464212644      3.558971994036
H             6.426773411113      3.518353177774      2.957838079248
O             4.118971414634      3.760957170733      1.624273274806
H             4.664723152223      4.501753695553      1.934397975099
H             6.374804640449     -0.774109280898      2.925524494439
