25
-2.15059608380306
C             0.697092438124      1.206228481101                   0
H             1.238751481843      2.142336379831      0.004928675883
C             1.394066202537                   0                   0
H             2.475325479251      0.000114333064      0.010977564436
C             0.696663336265       -1.2063436648     -0.001377484826
H             1.238021589736     -2.142768045099      0.001261014205
C             -0.69694068372     -1.206903024974     -0.000507818264
H            -1.237799125947      -2.14373787832      -0.00169760104
C            -1.394117326826      0.000170803848      0.001981006868
H            -2.475865900014      0.000265443726      0.001461018677
C             -0.69676396638      1.206847404824      -9.5703779e-05
H            -1.237425243665      2.143795338383     -0.000181194041
C              5.18371079528              1.8118      2.027447238892
C             3.975701767162              1.8273       2.72431422619
C             3.360623730475               0.626      3.078967816029
C             3.953964529527             -0.5904       2.73686422619
C             5.163062788129             -0.6082      2.039483841433
C             5.767931532673               0.596      1.690147238892
H             5.667622585834              2.7432      1.748407046514
H             3.515309265051               2.775       2.98989102111
H             3.472764212644             -1.5246      3.014800828731
H             5.612903177774              -1.561      1.780230251594
O             6.948507170733               0.626       1.00796422619
H             7.230153695553              -0.288      0.840390316954
H             2.419040719102              0.6382      3.621898200787
