25
-0.871089796093824
C             0.697092438124      1.206228481101                   0
H             1.238751481843      2.142336379831      0.004928675883
C             1.394066202537                   0                   0
H             2.475325479251      0.000114333064      0.010977564436
C             0.696663336265       -1.2063436648     -0.001377484826
H             1.238021589736     -2.142768045099      0.001261014205
C             -0.69694068372     -1.206903024974     -0.000507818264
H            -1.237799125947      -2.14373787832      -0.00169760104
C            -1.394117326826      0.000170803848      0.001981006868
H            -2.475865900014      0.000265443726      0.001461018677
C             -0.69676396638      1.206847404824      -9.5703779e-05
H            -1.237425243665      2.143795338383     -0.000181194041
C              4.40301079528      4.324764826577              3.7496
C             3.187501767162      3.640888220335              3.7491
C             3.173273730475      2.245531902769              3.7487
C             4.374614529527      1.534548601606              3.7491
C             5.592312788129      2.217033349418              3.7497
C             5.595131532673      3.609151140656              3.7496
H             4.421072585834      5.410680887661              3.7499
H             2.253359265051      4.195870495502              3.7489
H             4.360464212644       0.44765766939              3.7492
H             6.518353177774      1.651484344692              3.7501
O             6.760957170733      4.316881902769              3.7491
H             7.501753695553       3.68918468371              3.7448
H             2.225890719102      1.712647412695              3.7481
