25
-0.230099392716217
C             0.697092438124      1.206228481101                   0
H             1.238751481843      2.142336379831      0.004928675883
C             1.394066202537                   0                   0
H             2.475325479251      0.000114333064      0.010977564436
C             0.696663336265       -1.2063436648     -0.001377484826
H             1.238021589736     -2.142768045099      0.001261014205
C             -0.69694068372     -1.206903024974     -0.000507818264
H            -1.237799125947      -2.14373787832      -0.00169760104
C            -1.394117326826      0.000170803848      0.001981006868
H            -2.475865900014      0.000265443726      0.001461018677
C             -0.69676396638      1.206847404824      -9.5703779e-05
H            -1.237425243665      2.143795338383     -0.000181194041
C             7.443864826577             -0.5114      3.877247238892
C             7.457038220335              0.8832       3.86906422619
C             6.416481902769              1.5932      4.469367816029
C             5.363248601606              0.9083       5.07791422619
C             5.348133349418             -0.4875      5.087333841433
C             6.390951140656              -1.186      4.485147238892
H             8.250630887661               -1.07      3.411807046514
H             8.277670495502              1.4147       3.39504102111
H              4.55425766939               1.464      5.545100828731
H             4.523184344692             -1.0067      5.564080251594
O             6.416681902769             -2.5495       4.46971422619
H              5.62298468371             -2.8772      4.922990316954
H             6.426747412695              2.6801      4.462748200787
