25
-0.105758170568701
C             0.697092438124      1.206228481101                   0
H             1.238751481843      2.142336379831      0.004928675883
C             1.394066202537                   0                   0
H             2.475325479251      0.000114333064      0.010977564436
C             0.696663336265       -1.2063436648     -0.001377484826
H             1.238021589736     -2.142768045099      0.001261014205
C             -0.69694068372     -1.206903024974     -0.000507818264
H            -1.237799125947      -2.14373787832      -0.00169760104
C            -1.394117326826      0.000170803848      0.001981006868
H            -2.475865900014      0.000265443726      0.001461018677
C             -0.69676396638      1.206847404824      -9.5703779e-05
H            -1.237425243665      2.143795338383     -0.000181194041
C             4.556135173423              3.5114      5.877247238892
C             4.542961779665              2.1168       5.86906422619
C             5.583518097231              1.4068      6.469367816029
C             6.636751398394              2.0917       7.07791422619
C             6.651866650582              3.4875      7.087333841433
C             5.609048859344               4.186      6.485147238892
H             3.749369112339                4.07      5.411807046514
H             3.722329504498              1.5853       5.39504102111
H              7.44574233061               1.536      7.545100828731
H             7.476815655308              4.0067      7.564080251594
O             5.583318097231              5.5495       6.46971422619
H              6.37701531629              5.8772      6.922990316954
H             5.573252587305              0.3199      6.462748200787
