25
-0.00891684015791412
C             0.697092438124      1.206228481101                   0
H             1.238751481843      2.142336379831      0.004928675883
C             1.394066202537                   0                   0
H             2.475325479251      0.000114333064      0.010977564436
C             0.696663336265       -1.2063436648     -0.001377484826
H             1.238021589736     -2.142768045099      0.001261014205
C             -0.69694068372     -1.206903024974     -0.000507818264
H            -1.237799125947      -2.14373787832      -0.00169760104
C            -1.394117326826      0.000170803848      0.001981006868
H            -2.475865900014      0.000265443726      0.001461018677
C             -0.69676396638      1.206847404824      -9.5703779e-05
H            -1.237425243665      2.143795338383     -0.000181194041
C             5.675741841252      3.186635173423      5.792882413288
C             6.275313342609      2.475911779665      4.753394110168
C             6.882730950791      3.161268097231      3.700515951385
C             6.890606961427      4.557151398394      3.687674300803
C             6.291177447368      5.270466650582      4.727116674709
C             5.687581472556      4.576848859344      5.772375570328
H             5.201270753597      2.659319112339      6.615290443831
H             6.268361388584      1.389429504498      4.765035247751
H             7.364868722409       5.08834233061      2.866428834695
H             6.304903662707      6.355215655308      4.704142172346
O             5.089235640824      5.232618097231      6.807740951385
H             5.172113469178       6.18801531629      6.655592341855
H             7.349802841236      2.607252587305      2.890323706348
