25
-0.0396090583567295
C             0.697092438124      1.206228481101                   0
H             1.238751481843      2.142336379831      0.004928675883
C             1.394066202537                   0                   0
H             2.475325479251      0.000114333064      0.010977564436
C             0.696663336265       -1.2063436648     -0.001377484826
H             1.238021589736     -2.142768045099      0.001261014205
C             -0.69694068372     -1.206903024974     -0.000507818264
H            -1.237799125947      -2.14373787832      -0.00169760104
C            -1.394117326826      0.000170803848      0.001981006868
H            -2.475865900014      0.000265443726      0.001461018677
C             -0.69676396638      1.206847404824      -9.5703779e-05
H            -1.237425243665      2.143795338383     -0.000181194041
C             6.324258158748      2.813364826577      7.792882413288
C             5.724686657391      3.524088220335      6.753394110168
C             5.117269049209      2.838731902769      5.700515951385
C             5.109393038573      1.442848601606      5.687674300803
C             5.708822552632      0.729533349418      6.727116674709
C             6.312418527444      1.423151140656      7.772375570328
H             6.798729246403      3.340680887661      8.615290443831
H             5.731638611416      4.610570495502      6.765035247751
H             4.635131277591       0.91165766939      4.866428834695
H             5.695096337293     -0.355215655308      6.704142172346
O             6.910764359176      0.767381902769      8.807740951385
H             6.827886530822      -0.18801531629      8.655592341855
H             4.650197158764      3.392747412695      4.890323706348
