25
-0.170862919595979
C             0.697092438124      1.206228481101                   0
H             1.238751481843      2.142336379831      0.004928675883
C             1.394066202537                   0                   0
H             2.475325479251      0.000114333064      0.010977564436
C             0.696663336265       -1.2063436648     -0.001377484826
H             1.238021589736     -2.142768045099      0.001261014205
C             -0.69694068372     -1.206903024974     -0.000507818264
H            -1.237799125947      -2.14373787832      -0.00169760104
C            -1.394117326826      0.000170803848      0.001981006868
H            -2.475865900014      0.000265443726      0.001461018677
C             -0.69676396638      1.206847404824      -9.5703779e-05
H            -1.237425243665      2.143795338383     -0.000181194041
C             5.956717586712      1.186635173423      3.890552636532
C             6.995705889832      0.475911779665      3.290115109771
C             8.048184048615      1.161268097231      2.682004681267
C             8.061425699197      2.557151398394      2.674821490954
C             7.022583325291      3.270466650582      3.275290235497
C             5.977224429672      2.576848859344      3.878713005229
H             5.134609556169      0.659319112339       4.36554333943
H             6.983864752249     -0.610570495502      3.296720653635
H             8.882771165305       3.08834233061      2.200732935053
H             7.045957827654      4.355215655308      3.262256840481
O             4.941359048615      3.232618097231      4.476192811557
H             5.089207658145       4.18801531629      4.385867164731
H             8.857776293652      0.607252587305      2.213893560338
