25
-0.0269632459866094
C             0.697092438124      1.206228481101                   0
H             1.238751481843      2.142336379831      0.004928675883
C             1.394066202537                   0                   0
H             2.475325479251      0.000114333064      0.010977564436
C             0.696663336265       -1.2063436648     -0.001377484826
H             1.238021589736     -2.142768045099      0.001261014205
C             -0.69694068372     -1.206903024974     -0.000507818264
H            -1.237799125947      -2.14373787832      -0.00169760104
C            -1.394117326826      0.000170803848      0.001981006868
H            -2.475865900014      0.000265443726      0.001461018677
C             -0.69676396638      1.206847404824      -9.5703779e-05
H            -1.237425243665      2.143795338383     -0.000181194041
C             4.956717586712     -0.813364826577      5.890552636532
C             5.995705889832     -1.524088220335      5.290115109771
C             7.048184048615     -0.838731902769      4.682004681267
C             7.061425699197      0.557151398394      4.674821490954
C             6.022583325291      1.270466650582      5.275290235497
C             4.977224429672      0.576848859344      5.878713005229
H             4.134609556169     -1.340680887661       6.36554333943
H             5.983864752249     -2.610570495502      5.296720653635
H             7.882771165305       1.08834233061      4.200732935053
H             6.045957827654      2.355215655308      5.262256840481
O             3.941359048615      1.232618097231      6.476192811557
H             4.089207658145       2.18801531629      6.385867164731
H             7.857776293652     -1.392747412695      4.213893560338
