25
-1.47910554272625
C             0.697092438124      1.206228481101                   0
H             1.238751481843      2.142336379831      0.004928675883
C             1.394066202537                   0                   0
H             2.475325479251      0.000114333064      0.010977564436
C             0.696663336265       -1.2063436648     -0.001377484826
H             1.238021589736     -2.142768045099      0.001261014205
C             -0.69694068372     -1.206903024974     -0.000507818264
H            -1.237799125947      -2.14373787832      -0.00169760104
C            -1.394117326826      0.000170803848      0.001981006868
H            -2.475865900014      0.000265443726      0.001461018677
C             -0.69676396638      1.206847404824      -9.5703779e-05
H            -1.237425243665      2.143795338383     -0.000181194041
C             4.792882413288      1.813364826577      1.675741841252
C             3.753394110168      2.524088220335      2.275313342609
C             2.700515951385      1.838731902769      2.882730950791
C             2.687674300803      0.442848601606      2.890606961427
C             3.727116674709     -0.270466650582      2.291177447368
C             4.772375570328      0.423151140656      1.687581472556
H             5.615290443831      2.340680887661      1.201270753597
H             3.765035247751      3.610570495502      2.268361388584
H             1.866428834695      -0.08834233061      3.364868722409
H             3.704142172346     -1.355215655308      2.304903662707
O             5.807740951385     -0.232618097231      1.089235640824
H             5.655592341855      -1.18801531629      1.172113469178
H             1.890323706348      2.392747412695      3.349802841236
