25
-0.26234557421974
C             0.697092438124      1.206228481101                   0
H             1.238751481843      2.142336379831      0.004928675883
C             1.394066202537                   0                   0
H             2.475325479251      0.000114333064      0.010977564436
C             0.696663336265       -1.2063436648     -0.001377484826
H             1.238021589736     -2.142768045099      0.001261014205
C             -0.69694068372     -1.206903024974     -0.000507818264
H            -1.237799125947      -2.14373787832      -0.00169760104
C            -1.394117326826      0.000170803848      0.001981006868
H            -2.475865900014      0.000265443726      0.001461018677
C             -0.69676396638      1.206847404824      -9.5703779e-05
H            -1.237425243665      2.143795338383     -0.000181194041
C              8.21481079528      1.813364826577              3.7496
C             7.014801767162      2.524088220335              3.7491
C             5.799273730475      1.838731902769              3.7487
C             5.784214529527      0.442848601606              3.7491
C             6.984112788129     -0.270466650582              3.7497
C             8.191131532673      0.423151140656              3.7496
H             9.164272585834      2.340680887661              3.7499
H             7.028359265051      3.610570495502              3.7489
H             4.835864212644      -0.08834233061              3.7492
H             6.957353177774     -1.355215655308              3.7501
O             9.386957170733     -0.232618097231              3.7491
H             9.213753695553      -1.18801531629              3.7448
H             4.864090719102      2.392747412695              3.7481
