25
-0.318710754326046
C             0.697092438124      1.206228481101                   0
H             1.238751481843      2.142336379831      0.004928675883
C             1.394066202537                   0                   0
H             2.475325479251      0.000114333064      0.010977564436
C             0.696663336265       -1.2063436648     -0.001377484826
H             1.238021589736     -2.142768045099      0.001261014205
C             -0.69694068372     -1.206903024974     -0.000507818264
H            -1.237799125947      -2.14373787832      -0.00169760104
C            -1.394117326826      0.000170803848      0.001981006868
H            -2.475865900014      0.000265443726      0.001461018677
C             -0.69676396638      1.206847404824      -9.5703779e-05
H            -1.237425243665      2.143795338383     -0.000181194041
C              7.13850539764      -0.40301079528      5.945529652181
C             6.546500883581      0.812498232838      5.603158336358
C             5.338286865238      0.826726269525      4.905133767414
C             4.722357264764     -0.374614529527      4.549988526993
C             5.313106394065     -1.592312788129      4.891750516142
C             6.518765766336     -1.595131532673       5.58772280922
H             8.078786292917     -0.421072585834      6.488747490344
H             7.027229632525      1.746640734949      5.880476268861
H             3.781032106322     -0.360464212644      4.006629663426
H             4.823126588887     -2.518353177774      4.609322423941
O             7.131928585366     -2.760957170733      5.941155177575
H             6.590476847777     -3.501753695553      5.623582658809
H             4.877095359551      1.774109280898      4.638171907134
