25
-0.0982803968270372
C             0.697092438124      1.206228481101                   0
H             1.238751481843      2.142336379831      0.004928675883
C             1.394066202537                   0                   0
H             2.475325479251      0.000114333064      0.010977564436
C             0.696663336265       -1.2063436648     -0.001377484826
H             1.238021589736     -2.142768045099      0.001261014205
C             -0.69694068372     -1.206903024974     -0.000507818264
H            -1.237799125947      -2.14373787832      -0.00169760104
C            -1.394117326826      0.000170803848      0.001981006868
H            -2.475865900014      0.000265443726      0.001461018677
C             -0.69676396638      1.206847404824      -9.5703779e-05
H            -1.237425243665      2.143795338383     -0.000181194041
C             7.186635173423       3.21481079528              3.7496
C             6.475911779665      2.014801767162              3.7491
C             7.161268097231      0.799273730475              3.7487
C             8.557151398394      0.784214529527              3.7491
C             9.270466650582      1.984112788129              3.7497
C             8.576848859344      3.191131532673              3.7496
H             6.659319112339      4.164272585834              3.7499
H             5.389429504498      2.028359265051              3.7489
H              9.08834233061     -0.164135787356              3.7492
H            10.355215655308      1.957353177774              3.7501
O             9.232618097231      4.386957170733              3.7491
H             10.18801531629      4.213753695553              3.7448
H             6.607252587305     -0.135909280898              3.7481
