25
-0.526167049515577
C             0.697092438124      1.206228481101                   0
H             1.238751481843      2.142336379831      0.004928675883
C             1.394066202537                   0                   0
H             2.475325479251      0.000114333064      0.010977564436
C             0.696663336265       -1.2063436648     -0.001377484826
H             1.238021589736     -2.142768045099      0.001261014205
C             -0.69694068372     -1.206903024974     -0.000507818264
H            -1.237799125947      -2.14373787832      -0.00169760104
C            -1.394117326826      0.000170803848      0.001981006868
H            -2.475865900014      0.000265443726      0.001461018677
C             -0.69676396638      1.206847404824      -9.5703779e-05
H            -1.237425243665      2.143795338383     -0.000181194041
C             4.015347363468     -1.324764826577      7.525782413288
C             4.623534890229     -0.640888220335      8.578194110168
C             4.630995318733      0.754468097231      8.590315951385
C             4.029978509046      1.465451398394      7.550124300803
C             3.420609764503      0.782966650582      6.495866674709
C             3.419286994771     -0.609151140656      6.493375570328
H              4.00605666057     -2.410680887661      7.510290443831
H             5.090779346365     -1.195870495502      9.387085247751
H             4.036967064947       2.55234233061      7.562428834695
H             2.957243159519      1.348515655308      5.694092172346
O             2.836807188443     -1.316881902769      5.483490951385
H             2.470132835269      -0.68918468371      4.839792341855
H             5.105206439662      1.287352587305      9.410473706348
