25
-0.576714719269598
C             0.697092438124      1.206228481101                   0
H             1.238751481843      2.142336379831      0.004928675883
C             1.394066202537                   0                   0
H             2.475325479251      0.000114333064      0.010977564436
C             0.696663336265       -1.2063436648     -0.001377484826
H             1.238021589736     -2.142768045099      0.001261014205
C             -0.69694068372     -1.206903024974     -0.000507818264
H            -1.237799125947      -2.14373787832      -0.00169760104
C            -1.394117326826      0.000170803848      0.001981006868
H            -2.475865900014      0.000265443726      0.001461018677
C             -0.69676396638      1.206847404824      -9.5703779e-05
H            -1.237425243665      2.143795338383     -0.000181194041
C             6.207117586712      0.186635173423      1.675741841252
C             7.246605889832     -0.524088220335      2.275313342609
C             8.299484048615      0.161268097231      2.882730950791
C             8.312325699197      1.557151398394      2.890606961427
C             7.272883325291      2.270466650582      2.291177447368
C             6.227624429672      1.576848859344      1.687581472556
H             5.384709556169     -0.340680887661      1.201270753597
H             7.234964752249     -1.610570495502      2.268361388584
H             9.133571165305       2.08834233061      3.364868722409
H             7.295857827654      3.355215655308      2.304903662707
O             5.192259048615      2.232618097231      1.089235640824
H             5.344407658145       3.18801531629      1.172113469178
H             9.109676293652     -0.392747412695      3.349802841236
