25
-0.0290063525203759
C             0.697092438124      1.206228481101                   0
H             1.238751481843      2.142336379831      0.004928675883
C             1.394066202537                   0                   0
H             2.475325479251      0.000114333064      0.010977564436
C             0.696663336265       -1.2063436648     -0.001377484826
H             1.238021589736     -2.142768045099      0.001261014205
C             -0.69694068372     -1.206903024974     -0.000507818264
H            -1.237799125947      -2.14373787832      -0.00169760104
C            -1.394117326826      0.000170803848      0.001981006868
H            -2.475865900014      0.000265443726      0.001461018677
C             -0.69676396638      1.206847404824      -9.5703779e-05
H            -1.237425243665      2.143795338383     -0.000181194041
C                     7.2504       5.21481079528      3.186635173423
C                     7.2509      4.014801767162      2.475911779665
C                     7.2513      2.799273730475      3.161268097231
C                     7.2509      2.784214529527      4.557151398394
C                     7.2503      3.984112788129      5.270466650582
C                     7.2504      5.191131532673      4.576848859344
H                     7.2501      6.164272585834      2.659319112339
H                     7.2511      4.028359265051      1.389429504498
H                     7.2508      1.835864212644       5.08834233061
H                     7.2499      3.957353177774      6.355215655308
O                     7.2509      6.386957170733      5.232618097231
H                     7.2552      6.213753695553       6.18801531629
H                     7.2519      1.864090719102      2.607252587305
