25
-0.161375862026122
C             0.697092438124      1.206228481101                   0
H             1.238751481843      2.142336379831      0.004928675883
C             1.394066202537                   0                   0
H             2.475325479251      0.000114333064      0.010977564436
C             0.696663336265       -1.2063436648     -0.001377484826
H             1.238021589736     -2.142768045099      0.001261014205
C             -0.69694068372     -1.206903024974     -0.000507818264
H            -1.237799125947      -2.14373787832      -0.00169760104
C            -1.394117326826      0.000170803848      0.001981006868
H            -2.475865900014      0.000265443726      0.001461018677
C             -0.69676396638      1.206847404824      -9.5703779e-05
H            -1.237425243665      2.143795338383     -0.000181194041
C             6.223817586712      5.324764826577      3.581641841252
C             5.170905889832      4.640888220335      4.188963342609
C             5.158384048615      3.245531902769      4.195730950791
C             6.198975699197      2.534548601606      3.595406961427
C             7.253833325291      3.217033349418      2.987077447368
C             7.256224429672      4.609151140656      2.985581472556
H             6.239609556169      6.410680887661      3.572870753597
H             4.361814752249      5.195870495502      4.655861388584
H             6.186771165305       1.44765766939      3.602568722409
H             8.056007827654      2.651484344692      2.524403662707
O             8.265609048615      5.316881902769      2.402235640824
H             8.905007658145       4.68918468371      2.028113469178
H             4.337626293652      2.712647412695      4.668902841236
