25
-0.431215462448561
C             0.697092438124      1.206228481101                   0
H             1.238751481843      2.142336379831      0.004928675883
C             1.394066202537                   0                   0
H             2.475325479251      0.000114333064      0.010977564436
C             0.696663336265       -1.2063436648     -0.001377484826
H             1.238021589736     -2.142768045099      0.001261014205
C             -0.69694068372     -1.206903024974     -0.000507818264
H            -1.237799125947      -2.14373787832      -0.00169760104
C            -1.394117326826      0.000170803848      0.001981006868
H            -2.475865900014      0.000265443726      0.001461018677
C             -0.69676396638      1.206847404824      -9.5703779e-05
H            -1.237425243665      2.143795338383     -0.000181194041
C                     4.2504              1.8118              4.5114
C                     4.2509              1.8273              3.1168
C                     4.2513               0.626              2.4068
C                     4.2509             -0.5904              3.0917
C                     4.2503             -0.6082              4.4875
C                     4.2504               0.596               5.186
H                     4.2501              2.7432                5.07
H                     4.2511               2.775              2.5853
H                     4.2508             -1.5246               2.536
H                     4.2499              -1.561              5.0067
O                     4.2509               0.626              6.5495
H                     4.2552              -0.288              6.8772
H                     4.2519              0.6382              1.3199
