25
-0.292157836493997
C             0.697092438124      1.206228481101                   0
H             1.238751481843      2.142336379831      0.004928675883
C             1.394066202537                   0                   0
H             2.475325479251      0.000114333064      0.010977564436
C             0.696663336265       -1.2063436648     -0.001377484826
H             1.238021589736     -2.142768045099      0.001261014205
C             -0.69694068372     -1.206903024974     -0.000507818264
H            -1.237799125947      -2.14373787832      -0.00169760104
C            -1.394117326826      0.000170803848      0.001981006868
H            -2.475865900014      0.000265443726      0.001461018677
C             -0.69676396638      1.206847404824      -9.5703779e-05
H            -1.237425243665      2.143795338383     -0.000181194041
C             6.474217586712      2.324764826577      3.984652636532
C             5.421805889832      1.640888220335      3.376465109771
C             5.409684048615      0.245531902769      3.369004681267
C             6.449875699197     -0.465451398394      3.970021490954
C             7.504133325291      0.217033349418      4.579390235497
C             7.506624429672      1.609151140656      4.580713005229
H             6.489709556169      3.410680887661       3.99394333943
H             4.612914752249      2.195870495502      2.909220653635
H             6.437571165305      -1.55234233061      3.963032935053
H             8.305907827654     -0.348515655308      5.042756840481
O             8.516509048615      2.316881902769      5.163192811557
H             9.160207658145       1.68918468371      5.529867164731
H             4.589526293652     -0.287352587305      2.894793560338
