25
-0.016288062913837
C             0.697092438124      1.206228481101                   0
H             1.238751481843      2.142336379831      0.004928675883
C             1.394066202537                   0                   0
H             2.475325479251      0.000114333064      0.010977564436
C             0.696663336265       -1.2063436648     -0.001377484826
H             1.238021589736     -2.142768045099      0.001261014205
C             -0.69694068372     -1.206903024974     -0.000507818264
H            -1.237799125947      -2.14373787832      -0.00169760104
C            -1.394117326826      0.000170803848      0.001981006868
H            -2.475865900014      0.000265443726      0.001461018677
C             -0.69676396638      1.206847404824      -9.5703779e-05
H            -1.237425243665      2.143795338383     -0.000181194041
C             7.620764825604       1.40301079528       4.88810539764
C             7.962270116023      0.187501767162      4.295600883581
C             8.659601864644      0.173273730475      3.086986865238
C             9.015439925388      1.374614529527      2.471457264764
C             8.674717166724      2.592312788129      3.062806394065
C             7.978571668565      2.595131532673      4.268365766336
H             7.078066602683      1.421072585834      5.828686292917
H             7.684605773359     -0.746640734949      4.776129632525
H             9.558971994036      1.360464212644      1.530232106322
H             8.957838079248      3.518353177774      2.573226588887
O             7.624273274806      3.760957170733      4.881028585366
H             7.934397975099      4.501753695553      4.335276847777
H             8.925524494439     -0.774109280898      2.625195359551
