25
-0.0316291518873247
C             0.697092438124      1.206228481101                   0
H             1.238751481843      2.142336379831      0.004928675883
C             1.394066202537                   0                   0
H             2.475325479251      0.000114333064      0.010977564436
C             0.696663336265       -1.2063436648     -0.001377484826
H             1.238021589736     -2.142768045099      0.001261014205
C             -0.69694068372     -1.206903024974     -0.000507818264
H            -1.237799125947      -2.14373787832      -0.00169760104
C            -1.394117326826      0.000170803848      0.001981006868
H            -2.475865900014      0.000265443726      0.001461018677
C             -0.69676396638      1.206847404824      -9.5703779e-05
H            -1.237425243665      2.143795338383     -0.000181194041
C                     3.2504              2.8118              9.5114
C                     3.2509              2.8273              8.1168
C                     3.2513               1.626              7.4068
C                     3.2509              0.4096              8.0917
C                     3.2503              0.3918              9.4875
C                     3.2504               1.596              10.186
H                     3.2501              3.7432               10.07
H                     3.2511               3.775              7.5853
H                     3.2508             -0.5246               7.536
H                     3.2499              -0.561             10.0067
O                     3.2509               1.626             11.5495
H                     3.2552               0.712             11.8772
H                     3.2519              1.6382              6.3199
