25
-0.00204900513446006
C             0.697092438124      1.206228481101                   0
H             1.238751481843      2.142336379831      0.004928675883
C             1.394066202537                   0                   0
H             2.475325479251      0.000114333064      0.010977564436
C             0.696663336265       -1.2063436648     -0.001377484826
H             1.238021589736     -2.142768045099      0.001261014205
C             -0.69694068372     -1.206903024974     -0.000507818264
H            -1.237799125947      -2.14373787832      -0.00169760104
C            -1.394117326826      0.000170803848      0.001981006868
H            -2.475865900014      0.000265443726      0.001461018677
C             -0.69676396638      1.206847404824      -9.5703779e-05
H            -1.237425243665      2.143795338383     -0.000181194041
C                     4.7496     -0.813364826577       9.21481079528
C                     4.7491     -1.524088220335      8.014801767162
C                     4.7487     -0.838731902769      6.799273730475
C                     4.7491      0.557151398394      6.784214529527
C                     4.7497      1.270466650582      7.984112788129
C                     4.7496      0.576848859344      9.191131532673
H                     4.7499     -1.340680887661     10.164272585834
H                     4.7489     -2.610570495502      8.028359265051
H                     4.7492       1.08834233061      5.835864212644
H                     4.7501      2.355215655308      7.957353177774
O                     4.7491      1.232618097231     10.386957170733
H                     4.7448       2.18801531629     10.213753695553
H                     4.7481     -1.392747412695      5.864090719102
