25
-0.227926391766345
C             0.697092438124      1.206228481101                   0
H             1.238751481843      2.142336379831      0.004928675883
C             1.394066202537                   0                   0
H             2.475325479251      0.000114333064      0.010977564436
C             0.696663336265       -1.2063436648     -0.001377484826
H             1.238021589736     -2.142768045099      0.001261014205
C             -0.69694068372     -1.206903024974     -0.000507818264
H            -1.237799125947      -2.14373787832      -0.00169760104
C            -1.394117326826      0.000170803848      0.001981006868
H            -2.475865900014      0.000265443726      0.001461018677
C             -0.69676396638      1.206847404824      -9.5703779e-05
H            -1.237425243665      2.143795338383     -0.000181194041
C              8.13850539764       1.59698920472      3.945529652181
C             7.546500883581      2.812498232838      3.603158336358
C             6.338286865238      2.826726269525      2.905133767413
C             5.722357264764      1.625385470473      2.549988526993
C             6.313106394065      0.407687211871      2.891750516142
C             7.518765766336      0.404868467327       3.58772280922
H             9.078786292917      1.578927414166      4.488747490344
H             8.027229632525      3.746640734949      3.880476268861
H             4.781032106322      1.639535787356      2.006629663426
H             5.823126588887     -0.518353177774      2.609322423941
O             8.131928585366     -0.760957170733      3.941155177575
H             7.590476847777     -1.501753695553      3.623582658809
H             5.877095359551      3.774109280898      2.638171907134
