25
-0.0790019398305815
C             0.697092438124      1.206228481101                   0
H             1.238751481843      2.142336379831      0.004928675883
C             1.394066202537                   0                   0
H             2.475325479251      0.000114333064      0.010977564436
C             0.696663336265       -1.2063436648     -0.001377484826
H             1.238021589736     -2.142768045099      0.001261014205
C             -0.69694068372     -1.206903024974     -0.000507818264
H            -1.237799125947      -2.14373787832      -0.00169760104
C            -1.394117326826      0.000170803848      0.001981006868
H            -2.475865900014      0.000265443726      0.001461018677
C             -0.69676396638      1.206847404824      -9.5703779e-05
H            -1.237425243665      2.143795338383     -0.000181194041
C                     4.7496     -1.324764826577       5.40301079528
C                     4.7491     -0.640888220335      4.187501767162
C                     4.7487      0.754468097231      4.173273730475
C                     4.7491      1.465451398394      5.374614529527
C                     4.7497      0.782966650582      6.592312788129
C                     4.7496     -0.609151140656      6.595131532673
H                     4.7499     -2.410680887661      5.421072585834
H                     4.7489     -1.195870495502      3.253359265051
H                     4.7492       2.55234233061      5.360464212644
H                     4.7501      1.348515655308      7.518353177774
O                     4.7491     -1.316881902769      7.760957170733
H                     4.7448      -0.68918468371      8.501753695553
H                     4.7481      1.287352587305      3.225890719102
