25
-0.0421073599277773
C             0.697092438124      1.206228481101                   0
H             1.238751481843      2.142336379831      0.004928675883
C             1.394066202537                   0                   0
H             2.475325479251      0.000114333064      0.010977564436
C             0.696663336265       -1.2063436648     -0.001377484826
H             1.238021589736     -2.142768045099      0.001261014205
C             -0.69694068372     -1.206903024974     -0.000507818264
H            -1.237799125947      -2.14373787832      -0.00169760104
C            -1.394117326826      0.000170803848      0.001981006868
H            -2.475865900014      0.000265443726      0.001461018677
C             -0.69676396638      1.206847404824      -9.5703779e-05
H            -1.237425243665      2.143795338383     -0.000181194041
C              9.18371079528              2.8118      3.027447238892
C             7.975701767162              2.8273       3.72431422619
C             7.360623730475               1.626      4.078967816029
C             7.953964529527              0.4096       3.73686422619
C             9.163062788129              0.3918      3.039483841433
C             9.767931532673               1.596      2.690147238892
H             9.667622585834              3.7432      2.748407046514
H             7.515309265051               3.775       3.98989102111
H             7.472764212644             -0.5246      4.014800828731
H             9.612903177774              -0.561      2.780230251594
O            10.948507170733               1.626       2.00796422619
H            11.230153695553               0.712      1.840390316954
H             6.419040719102              1.6382      4.621898200787
