25
-3.15637041969126e-05
C             0.697092438124      1.206228481101                   0
H             1.238751481843      2.142336379831      0.004928675883
C             1.394066202537                   0                   0
H             2.475325479251      0.000114333064      0.010977564436
C             0.696663336265       -1.2063436648     -0.001377484826
H             1.238021589736     -2.142768045099      0.001261014205
C             -0.69694068372     -1.206903024974     -0.000507818264
H            -1.237799125947      -2.14373787832      -0.00169760104
C            -1.394117326826      0.000170803848      0.001981006868
H            -2.475865900014      0.000265443726      0.001461018677
C             -0.69676396638      1.206847404824      -9.5703779e-05
H            -1.237425243665      2.143795338383     -0.000181194041
C                     6.7496      1.675235173423       5.40301079528
C                     6.7491      2.359111779665      4.187501767162
C                     6.7487      3.754468097231      4.173273730475
C                     6.7491      4.465451398394      5.374614529527
C                     6.7497      3.782966650582      6.592312788129
C                     6.7496      2.390848859344      6.595131532673
H                     6.7499      0.589319112339      5.421072585834
H                     6.7489      1.804129504498      3.253359265051
H                     6.7492       5.55234233061      5.360464212644
H                     6.7501      4.348515655308      7.518353177774
O                     6.7491      1.683118097231      7.760957170733
H                     6.7448       2.31081531629      8.501753695553
H                     6.7481      4.287352587305      3.225890719102
