25
-2.26206151146723
C             0.697092438124      1.206228481101                   0
H             1.238751481843      2.142336379831      0.004928675883
C             1.394066202537                   0                   0
H             2.475325479251      0.000114333064      0.010977564436
C             0.696663336265       -1.2063436648     -0.001377484826
H             1.238021589736     -2.142768045099      0.001261014205
C             -0.69694068372     -1.206903024974     -0.000507818264
H            -1.237799125947      -2.14373787832      -0.00169760104
C            -1.394117326826      0.000170803848      0.001981006868
H            -2.475865900014      0.000265443726      0.001461018677
C             -0.69676396638      1.206847404824      -9.5703779e-05
H            -1.237425243665      2.143795338383     -0.000181194041
C             0.810170347819       2.21481079528       4.17040539764
C             0.455241663642      1.014801767162      3.554650883581
C             0.798266232587     -0.200726269525      4.147986865238
C             1.495861473007     -0.215785470473      5.357057264764
C             1.851999483858      0.984112788129      5.975106394065
C              1.50527719078      2.191131532673      5.374365766336
H             0.546252509656      3.164272585834      3.713886292917
H            -0.087826268861      1.028359265051      2.613629632525
H             1.761370336574     -1.164135787356      5.817132106322
H             2.394027576059      0.957353177774      6.914726588887
O             1.833594822425      3.386957170733      5.942028585366
H             2.315017341191      3.213753695553      6.767276847777
H             0.521778092866     -1.135909280898      3.667895359551
