25
-2.47361757394657
C             0.697092438124      1.206228481101                   0
H             1.238751481843      2.142336379831      0.004928675883
C             1.394066202537                   0                   0
H             2.475325479251      0.000114333064      0.010977564436
C             0.696663336265       -1.2063436648     -0.001377484826
H             1.238021589736     -2.142768045099      0.001261014205
C             -0.69694068372     -1.206903024974     -0.000507818264
H            -1.237799125947      -2.14373787832      -0.00169760104
C            -1.394117326826      0.000170803848      0.001981006868
H            -2.475865900014      0.000265443726      0.001461018677
C             -0.69676396638      1.206847404824      -9.5703779e-05
H            -1.237425243665      2.143795338383     -0.000181194041
C            -0.623535174396       2.21481079528       5.57919460236
C            -0.979329883977      1.014801767162      6.194449116419
C            -0.636998135356     -0.200726269525      5.600713134762
C             0.061289925388     -0.215785470473      4.392042735236
C             0.418467166724      0.984112788129      3.774593605935
C             0.071571668565      2.191131532673      4.375234233664
H            -0.886933397317      3.164272585834      6.036013707083
H            -1.522744226641      1.028359265051      7.135270367475
H             0.326971994036     -1.164135787356      3.932067893678
H             0.961188079248      0.957353177774      2.835373411113
O             0.399023274806      3.386957170733      3.807071414634
H             0.872997975099      3.213753695553      2.977523152223
H            -0.914525505561     -1.135909280898      6.080204640449
