25
-0.0658105083766012
C             0.697092438124      1.206228481101                   0
H             1.238751481843      2.142336379831      0.004928675883
C             1.394066202537                   0                   0
H             2.475325479251      0.000114333064      0.010977564436
C             0.696663336265       -1.2063436648     -0.001377484826
H             1.238021589736     -2.142768045099      0.001261014205
C             -0.69694068372     -1.206903024974     -0.000507818264
H            -1.237799125947      -2.14373787832      -0.00169760104
C            -1.394117326826      0.000170803848      0.001981006868
H            -2.475865900014      0.000265443726      0.001461018677
C             -0.69676396638      1.206847404824      -9.5703779e-05
H            -1.237425243665      2.143795338383     -0.000181194041
C             1.810170347819       3.21481079528       8.17040539764
C             1.455241663642      2.014801767162      7.554650883581
C             1.798266232586      0.799273730475      8.147986865238
C             2.495861473007      0.784214529527      9.357057264764
C             2.851999483858      1.984112788129      9.975106394065
C              2.50527719078      3.191131532673      9.374365766336
H             1.546252509656      4.164272585834      7.713886292917
H             0.912173731139      2.028359265051      6.613629632525
H             2.761370336574     -0.164135787356      9.817132106322
H             3.394027576059      1.957353177774     10.914726588887
O             2.833594822425      4.386957170733      9.942028585366
H             3.315017341191      4.213753695553     10.767276847777
H             1.521778092866     -0.135909280898      7.667895359551
