25
-0.128376544281099
C             0.697092438124      1.206228481101                   0
H             1.238751481843      2.142336379831      0.004928675883
C             1.394066202537                   0                   0
H             2.475325479251      0.000114333064      0.010977564436
C             0.696663336265       -1.2063436648     -0.001377484826
H             1.238021589736     -2.142768045099      0.001261014205
C             -0.69694068372     -1.206903024974     -0.000507818264
H            -1.237799125947      -2.14373787832      -0.00169760104
C            -1.394117326826      0.000170803848      0.001981006868
H            -2.475865900014      0.000265443726      0.001461018677
C             -0.69676396638      1.206847404824      -9.5703779e-05
H            -1.237425243665      2.143795338383     -0.000181194041
C             5.538847238892              1.8118       4.56588920472
C              4.84111422619              1.8273      5.773398232838
C             4.485767816029               0.626      6.388076269525
C              4.82856422619             -0.5904      5.795135470473
C             5.526983841433             -0.6082      4.586637211871
C             5.876147238892               0.596      3.981668467327
H             5.818407046514              2.7432      4.082277414166
H              4.57519102111               2.775      6.233590734949
H             4.550800828731             -1.5246      6.276435787356
H             5.786930251594              -1.561      4.137196822226
O              6.55746422619               0.626      2.800592829267
H             6.717590316954              -0.288      2.514646304447
H             3.941798200787              0.6382      7.329059280898
