25
-0.0277972681816863
C             0.697092438124      1.206228481101                   0
H             1.238751481843      2.142336379831      0.004928675883
C             1.394066202537                   0                   0
H             2.475325479251      0.000114333064      0.010977564436
C             0.696663336265       -1.2063436648     -0.001377484826
H             1.238021589736     -2.142768045099      0.001261014205
C             -0.69694068372     -1.206903024974     -0.000507818264
H            -1.237799125947      -2.14373787832      -0.00169760104
C            -1.394117326826      0.000170803848      0.001981006868
H            -2.475865900014      0.000265443726      0.001461018677
C             -0.69676396638      1.206847404824      -9.5703779e-05
H            -1.237425243665      2.143795338383     -0.000181194041
C             6.984652636532      2.324764826577      4.525782413288
C             6.376465109771      1.640888220335      5.578194110168
C             6.369004681267      0.245531902769      5.590315951385
C             6.970021490954     -0.465451398394      4.550124300803
C             7.579390235497      0.217033349418      3.495866674709
C             7.580713005229      1.609151140656      3.493375570328
H              6.99394333943      3.410680887661      4.510290443831
H             5.909220653635      2.195870495502      6.387085247751
H             6.963032935053      -1.55234233061      4.562428834695
H             8.042756840481     -0.348515655308      2.694092172346
O             8.163192811557      2.316881902769      2.483490951385
H             8.529867164731       1.68918468371      1.839792341855
H             5.894793560338     -0.287352587305      6.410473706348
