25
-0.0394674923681209
C             0.697092438124      1.206228481101                   0
H             1.238751481843      2.142336379831      0.004928675883
C             1.394066202537                   0                   0
H             2.475325479251      0.000114333064      0.010977564436
C             0.696663336265       -1.2063436648     -0.001377484826
H             1.238021589736     -2.142768045099      0.001261014205
C             -0.69694068372     -1.206903024974     -0.000507818264
H            -1.237799125947      -2.14373787832      -0.00169760104
C            -1.394117326826      0.000170803848      0.001981006868
H            -2.475865900014      0.000265443726      0.001461018677
C             -0.69676396638      1.206847404824      -9.5703779e-05
H            -1.237425243665      2.143795338383     -0.000181194041
C             7.890552636532      3.813364826577      3.956717586712
C             7.290115109771      4.524088220335      4.995705889832
C             6.682004681267      3.838731902769      6.048184048615
C             6.674821490954      2.442848601606      6.061425699197
C             7.275290235497      1.729533349418      5.022583325291
C             7.878713005229      2.423151140656      3.977224429672
H              8.36554333943      4.340680887661      3.134609556169
H             7.296720653635      5.610570495502      4.983864752249
H             6.200732935053       1.91165766939      6.882771165305
H             7.262256840481      0.644784344692      5.045957827654
O             8.476192811557      1.767381902769      2.941359048615
H             8.385867164731       0.81198468371      3.089207658145
H             6.213893560338      4.392747412695      6.857776293652
