25
-0.0952548622196761
C             0.697092438124      1.206228481101                   0
H             1.238751481843      2.142336379831      0.004928675883
C             1.394066202537                   0                   0
H             2.475325479251      0.000114333064      0.010977564436
C             0.696663336265       -1.2063436648     -0.001377484826
H             1.238021589736     -2.142768045099      0.001261014205
C             -0.69694068372     -1.206903024974     -0.000507818264
H            -1.237799125947      -2.14373787832      -0.00169760104
C            -1.394117326826      0.000170803848      0.001981006868
H            -2.475865900014      0.000265443726      0.001461018677
C             -0.69676396638      1.206847404824      -9.5703779e-05
H            -1.237425243665      2.143795338383     -0.000181194041
C                     7.7496              0.4886              2.1882
C                     7.7491              1.8832              2.1727
C                     7.7487              2.5932               3.374
C                     7.7491              1.9083              4.5904
C                     7.7497              0.5125              4.6082
C                     7.7496              -0.186               3.404
H                     7.7499               -0.07              1.2568
H                     7.7489              2.4147               1.225
H                     7.7492               2.464              5.5246
H                     7.7501             -0.0067               5.561
O                     7.7491             -1.5495               3.374
H                     7.7448             -1.8772               4.288
H                     7.7481              3.6801              3.3618
