25
-0.0408973971143142
C             0.697092438124      1.206228481101                   0
H             1.238751481843      2.142336379831      0.004928675883
C             1.394066202537                   0                   0
H             2.475325479251      0.000114333064      0.010977564436
C             0.696663336265       -1.2063436648     -0.001377484826
H             1.238021589736     -2.142768045099      0.001261014205
C             -0.69694068372     -1.206903024974     -0.000507818264
H            -1.237799125947      -2.14373787832      -0.00169760104
C            -1.394117326826      0.000170803848      0.001981006868
H            -2.475865900014      0.000265443726      0.001461018677
C             -0.69676396638      1.206847404824      -9.5703779e-05
H            -1.237425243665      2.143795338383     -0.000181194041
C             9.443864826577             -1.5114      4.877247238892
C             9.457038220335             -0.1168       4.86906422619
C             8.416481902769              0.5932      5.469367816029
C             7.363248601606             -0.0917       6.07791422619
C             7.348133349418             -1.4875      6.087333841433
C             8.390951140656              -2.186      5.485147238892
H            10.250630887661               -2.07      4.411807046514
H            10.277670495502              0.4147       4.39504102111
H              6.55425766939               0.464      6.545100828731
H             6.523184344692             -2.0067      6.564080251594
O             8.416681902769             -3.5495       5.46971422619
H              7.62298468371             -3.8772      5.922990316954
H             8.426747412695              1.6801      5.462748200787
