25
-0.212028137551359
C             0.697092438124      1.206228481101                   0
H             1.238751481843      2.142336379831      0.004928675883
C             1.394066202537                   0                   0
H             2.475325479251      0.000114333064      0.010977564436
C             0.696663336265       -1.2063436648     -0.001377484826
H             1.238021589736     -2.142768045099      0.001261014205
C             -0.69694068372     -1.206903024974     -0.000507818264
H            -1.237799125947      -2.14373787832      -0.00169760104
C            -1.394117326826      0.000170803848      0.001981006868
H            -2.475865900014      0.000265443726      0.001461018677
C             -0.69676396638      1.206847404824      -9.5703779e-05
H            -1.237425243665      2.143795338383     -0.000181194041
C              8.88810539764       1.59698920472      1.620764825604
C             8.295600883581      2.812498232838      1.962270116023
C             7.086986865238      2.826726269525      2.659601864644
C             6.471457264764      1.625385470473      3.015439925388
C             7.062806394065      0.407687211871      2.674717166724
C             8.268365766336      0.404868467327      1.978571668565
H             9.828686292917      1.578927414166      1.078066602683
H             8.776129632525      3.746640734949      1.684605773359
H             5.530232106322      1.639535787356      3.558971994036
H             6.573226588887     -0.518353177774      2.957838079248
O             8.881028585366     -0.760957170733      1.624273274806
H             8.335276847777     -1.501753695553      1.934397975099
H             6.625195359551      3.774109280898      2.925524494439
