25
-0.0915643563090088
C             0.697092438124      1.206228481101                   0
H             1.238751481843      2.142336379831      0.004928675883
C             1.394066202537                   0                   0
H             2.475325479251      0.000114333064      0.010977564436
C             0.696663336265       -1.2063436648     -0.001377484826
H             1.238021589736     -2.142768045099      0.001261014205
C             -0.69694068372     -1.206903024974     -0.000507818264
H            -1.237799125947      -2.14373787832      -0.00169760104
C            -1.394117326826      0.000170803848      0.001981006868
H            -2.475865900014      0.000265443726      0.001461018677
C             -0.69676396638      1.206847404824      -9.5703779e-05
H            -1.237425243665      2.143795338383     -0.000181194041
C             9.189829652181      -0.21481079528       2.17040539764
C             9.544758336358      0.985198232838      1.554650883581
C             9.201733767414      2.200726269525      2.147986865238
C             8.504138526993      2.215785470473      3.357057264764
C             8.148000516142      1.015887211871      3.975106394065
C              8.49472280922     -0.191131532673      3.374365766336
H             9.453747490344     -1.164272585834      1.713886292917
H            10.087826268861      0.971640734949      0.613629632525
H             8.238629663426      3.164135787356      3.817132106322
H             7.605972423941      1.042646822226      4.914726588887
O             8.166405177575     -1.386957170733      3.942028585366
H             7.684982658809     -1.213753695553      4.767276847777
H             9.478221907134      3.135909280898      1.667895359551
