25
-0.382076926941276
C             0.697092438124      1.206228481101                   0
H             1.238751481843      2.142336379831      0.004928675883
C             1.394066202537                   0                   0
H             2.475325479251      0.000114333064      0.010977564436
C             0.696663336265       -1.2063436648     -0.001377484826
H             1.238021589736     -2.142768045099      0.001261014205
C             -0.69694068372     -1.206903024974     -0.000507818264
H            -1.237799125947      -2.14373787832      -0.00169760104
C            -1.394117326826      0.000170803848      0.001981006868
H            -2.475865900014      0.000265443726      0.001461018677
C             -0.69676396638      1.206847404824      -9.5703779e-05
H            -1.237425243665      2.143795338383     -0.000181194041
C                     2.7496             -1.5114              5.1882
C                     2.7491             -0.1168              5.1727
C                     2.7487              0.5932               6.374
C                     2.7491             -0.0917              7.5904
C                     2.7497             -1.4875              7.6082
C                     2.7496              -2.186               6.404
H                     2.7499               -2.07              4.2568
H                     2.7489              0.4147               4.225
H                     2.7492               0.464              8.5246
H                     2.7501             -2.0067               8.561
O                     2.7491             -3.5495               6.374
H                     2.7448             -3.8772               7.288
H                     2.7481              1.6801              6.3618
