25
-0.0855568360864989
C             0.697092438124      1.206228481101                   0
H             1.238751481843      2.142336379831      0.004928675883
C             1.394066202537                   0                   0
H             2.475325479251      0.000114333064      0.010977564436
C             0.696663336265       -1.2063436648     -0.001377484826
H             1.238021589736     -2.142768045099      0.001261014205
C             -0.69694068372     -1.206903024974     -0.000507818264
H            -1.237799125947      -2.14373787832      -0.00169760104
C            -1.394117326826      0.000170803848      0.001981006868
H            -2.475865900014      0.000265443726      0.001461018677
C             -0.69676396638      1.206847404824      -9.5703779e-05
H            -1.237425243665      2.143795338383     -0.000181194041
C              6.57919460236       0.78518920472      5.376464825604
C             7.194449116419      1.985198232838      5.020670116023
C             6.600713134762      3.200726269525      5.363001864644
C             5.392042735236      3.215785470473      6.061289925388
C             4.774593605935      2.015887211871      6.418467166724
C             5.375234233664      0.808868467327      6.071571668565
H             7.036013707083     -0.164272585834      5.113066602683
H             8.135270367475      1.971640734949      4.477255773359
H             4.932067893678      4.164135787356      6.326971994036
H             3.835373411113      2.042646822226      6.961188079248
O             4.807071414634     -0.386957170733      6.399023274806
H             3.977523152223     -0.213753695553      6.872997975099
H             7.080204640449      4.135909280898      5.085474494439
