25
-0.271997352872254
C             0.697092438124      1.206228481101                   0
H             1.238751481843      2.142336379831      0.004928675883
C             1.394066202537                   0                   0
H             2.475325479251      0.000114333064      0.010977564436
C             0.696663336265       -1.2063436648     -0.001377484826
H             1.238021589736     -2.142768045099      0.001261014205
C             -0.69694068372     -1.206903024974     -0.000507818264
H            -1.237799125947      -2.14373787832      -0.00169760104
C            -1.394117326826      0.000170803848      0.001981006868
H            -2.475865900014      0.000265443726      0.001461018677
C             -0.69676396638      1.206847404824      -9.5703779e-05
H            -1.237425243665      2.143795338383     -0.000181194041
C                     6.7496      -2.21481079528      2.186635173423
C                     6.7491     -1.014801767162      1.475911779665
C                     6.7487      0.200726269525      2.161268097231
C                     6.7491      0.215785470473      3.557151398394
C                     6.7497     -0.984112788129      4.270466650582
C                     6.7496     -2.191131532673      3.576848859344
H                     6.7499     -3.164272585834      1.659319112339
H                     6.7489     -1.028359265051      0.389429504498
H                     6.7492      1.164135787356       4.08834233061
H                     6.7501     -0.957353177774      5.355215655308
O                     6.7491     -3.386957170733      4.232618097231
H                     6.7448     -3.213753695553       5.18801531629
H                     6.7481      1.135909280898      1.607252587305
