25
-1.26315296397885
C             0.697092438124      1.206228481101                   0
H             1.238751481843      2.142336379831      0.004928675883
C             1.394066202537                   0                   0
H             2.475325479251      0.000114333064      0.010977564436
C             0.696663336265       -1.2063436648     -0.001377484826
H             1.238021589736     -2.142768045099      0.001261014205
C             -0.69694068372     -1.206903024974     -0.000507818264
H            -1.237799125947      -2.14373787832      -0.00169760104
C            -1.394117326826      0.000170803848      0.001981006868
H            -2.475865900014      0.000265443726      0.001461018677
C             -0.69676396638      1.206847404824      -9.5703779e-05
H            -1.237425243665      2.143795338383     -0.000181194041
C             2.310952761108              2.5114      4.305735173423
C              2.30363577381              1.1168      4.292061779665
C             2.904632183971              0.4068      5.332218097231
C              3.51248577381              1.0917      6.385851398394
C             3.520866158567              2.4875      6.401566650582
C             2.918852761108               3.186      5.358648859344
H             1.844992953486                3.07      3.499269112339
H              1.82995897889              0.5853      3.471229504498
H             3.979499171269               0.536       7.19494233061
H             3.996919748406              3.0067      7.226915655308
O              2.90428577381              4.5495      5.332418097231
H             3.365009683046              4.8772       6.12181531629
H             2.899051799213             -0.6801      5.321352587305
