25
-0.585283480135233
C             0.697092438124      1.206228481101                   0
H             1.238751481843      2.142336379831      0.004928675883
C             1.394066202537                   0                   0
H             2.475325479251      0.000114333064      0.010977564436
C             0.696663336265       -1.2063436648     -0.001377484826
H             1.238021589736     -2.142768045099      0.001261014205
C             -0.69694068372     -1.206903024974     -0.000507818264
H            -1.237799125947      -2.14373787832      -0.00169760104
C            -1.394117326826      0.000170803848      0.001981006868
H            -2.475865900014      0.000265443726      0.001461018677
C             -0.69676396638      1.206847404824      -9.5703779e-05
H            -1.237425243665      2.143795338383     -0.000181194041
C             4.689047238892             -0.5114      3.305735173423
C              4.69636422619              0.8832      3.292061779665
C             4.095367816029              1.5932      4.332218097231
C              3.48751422619              0.9083      5.385851398394
C             3.479133841433             -0.4875      5.401566650582
C             4.081147238892              -1.186      4.358648859344
H             5.155007046514               -1.07      2.499269112339
H              5.17004102111              1.4147      2.471229504498
H             3.020500828731               1.464       6.19494233061
H             3.003080251594             -1.0067      6.226915655308
O              4.09571422619             -2.5495      4.332418097231
H             3.634990316954             -2.8772       5.12181531629
H             4.100948200787              2.6801      4.321352587305
