25
-0.0311772199194069
C             0.697092438124      1.206228481101                   0
H             1.238751481843      2.142336379831      0.004928675883
C             1.394066202537                   0                   0
H             2.475325479251      0.000114333064      0.010977564436
C             0.696663336265       -1.2063436648     -0.001377484826
H             1.238021589736     -2.142768045099      0.001261014205
C             -0.69694068372     -1.206903024974     -0.000507818264
H            -1.237799125947      -2.14373787832      -0.00169760104
C            -1.394117326826      0.000170803848      0.001981006868
H            -2.475865900014      0.000265443726      0.001461018677
C             -0.69676396638      1.206847404824      -9.5703779e-05
H            -1.237425243665      2.143795338383     -0.000181194041
C             7.984652636532      6.324764826577      2.525782413288
C             7.376465109771      5.640888220335      3.578194110168
C             7.369004681267      4.245531902769      3.590315951385
C             7.970021490954      3.534548601606      2.550124300803
C             8.579390235497      4.217033349418      1.495866674709
C             8.580713005229      5.609151140656      1.493375570328
H              7.99394333943      7.410680887661      2.510290443831
H             6.909220653635      6.195870495502      4.387085247751
H             7.963032935053       2.44765766939      2.562428834695
H             9.042756840481      3.651484344692      0.694092172346
O             9.163192811557      6.316881902769      0.483490951385
H             9.529867164731       5.68918468371     -0.160207658145
H             6.894793560338      3.712647412695      4.410473706348
