25
-0.415962914943222
C             0.697092438124      1.206228481101                   0
H             1.238751481843      2.142336379831      0.004928675883
C             1.394066202537                   0                   0
H             2.475325479251      0.000114333064      0.010977564436
C             0.696663336265       -1.2063436648     -0.001377484826
H             1.238021589736     -2.142768045099      0.001261014205
C             -0.69694068372     -1.206903024974     -0.000507818264
H            -1.237799125947      -2.14373787832      -0.00169760104
C            -1.394117326826      0.000170803848      0.001981006868
H            -2.475865900014      0.000265443726      0.001461018677
C             -0.69676396638      1.206847404824      -9.5703779e-05
H            -1.237425243665      2.143795338383     -0.000181194041
C              6.21481079528      2.813364826577              4.7496
C             5.014801767162      3.524088220335              4.7491
C             3.799273730475      2.838731902769              4.7487
C             3.784214529527      1.442848601606              4.7491
C             4.984112788129      0.729533349418              4.7497
C             6.191131532673      1.423151140656              4.7496
H             7.164272585834      3.340680887661              4.7499
H             5.028359265051      4.610570495502              4.7489
H             2.835864212644       0.91165766939              4.7492
H             4.957353177774     -0.355215655308              4.7501
O             7.386957170733      0.767381902769              4.7491
H             7.213753695553      -0.18801531629              4.7448
H             2.864090719102      3.392747412695              4.7481
