25
-0.0891860343884312
C             0.697092438124      1.206228481101                   0
H             1.238751481843      2.142336379831      0.004928675883
C             1.394066202537                   0                   0
H             2.475325479251      0.000114333064      0.010977564436
C             0.696663336265       -1.2063436648     -0.001377484826
H             1.238021589736     -2.142768045099      0.001261014205
C             -0.69694068372     -1.206903024974     -0.000507818264
H            -1.237799125947      -2.14373787832      -0.00169760104
C            -1.394117326826      0.000170803848      0.001981006868
H            -2.475865900014      0.000265443726      0.001461018677
C             -0.69676396638      1.206847404824      -9.5703779e-05
H            -1.237425243665      2.143795338383     -0.000181194041
C             8.189829652181      -2.21481079528       3.17040539764
C             8.544758336358     -1.014801767162      2.554650883581
C             8.201733767414      0.200726269525      3.147986865238
C             7.504138526993      0.215785470473      4.357057264764
C             7.148000516142     -0.984112788129      4.975106394065
C              7.49472280922     -2.191131532673      4.374365766336
H             8.453747490344     -3.164272585834      2.713886292917
H             9.087826268861     -1.028359265051      1.613629632525
H             7.238629663426      1.164135787356      4.817132106322
H             6.605972423941     -0.957353177774      5.914726588887
O             7.166405177575     -3.386957170733      4.942028585366
H             6.684982658809     -3.213753695553      5.767276847777
H             8.478221907134      1.135909280898      2.667895359551
