25
-2.07196481349254
C             0.697092438124      1.206228481101                   0
H             1.238751481843      2.142336379831      0.004928675883
C             1.394066202537                   0                   0
H             2.475325479251      0.000114333064      0.010977564436
C             0.696663336265       -1.2063436648     -0.001377484826
H             1.238021589736     -2.142768045099      0.001261014205
C             -0.69694068372     -1.206903024974     -0.000507818264
H            -1.237799125947      -2.14373787832      -0.00169760104
C            -1.394117326826      0.000170803848      0.001981006868
H            -2.475865900014      0.000265443726      0.001461018677
C             -0.69676396638      1.206847404824      -9.5703779e-05
H            -1.237425243665      2.143795338383     -0.000181194041
C            -1.122752761108              1.5114      5.443864826577
C             -1.13093577381              0.1168      5.457038220335
C            -0.530632183971             -0.5932      4.416481902769
C              0.07791422619              0.0917      3.363248601606
C             0.087333841433              1.4875      3.348133349418
C            -0.514852761108               2.186      4.390951140656
H            -1.588192953486                2.07      6.250630887661
H             -1.60495897889             -0.4147      6.277670495502
H             0.545100828731              -0.464       2.55425766939
H             0.564080251594              2.0067      2.523184344692
O             -0.53028577381              3.5495      4.416681902769
H            -0.077009683046              3.8772       3.62298468371
H            -0.537251799213             -1.6801      4.426747412695
