25
-0.1246451247312
C             0.697092438124      1.206228481101                   0
H             1.238751481843      2.142336379831      0.004928675883
C             1.394066202537                   0                   0
H             2.475325479251      0.000114333064      0.010977564436
C             0.696663336265       -1.2063436648     -0.001377484826
H             1.238021589736     -2.142768045099      0.001261014205
C             -0.69694068372     -1.206903024974     -0.000507818264
H            -1.237799125947      -2.14373787832      -0.00169760104
C            -1.394117326826      0.000170803848      0.001981006868
H            -2.475865900014      0.000265443726      0.001461018677
C             -0.69676396638      1.206847404824      -9.5703779e-05
H            -1.237425243665      2.143795338383     -0.000181194041
C             5.675235173423       3.40301079528              3.7496
C             6.359111779665      2.187501767162              3.7491
C             7.754468097231      2.173273730475              3.7487
C             8.465451398394      3.374614529527              3.7491
C             7.782966650582      4.592312788129              3.7497
C             6.390848859344      4.595131532673              3.7496
H             4.589319112339      3.421072585834              3.7499
H             5.804129504498      1.253359265051              3.7489
H              9.55234233061      3.360464212644              3.7492
H             8.348515655308      5.518353177774              3.7501
O             5.683118097231      5.760957170733              3.7491
H              6.31081531629      6.501753695553              3.7448
H             8.287352587305      1.225890719102              3.7481
