25
-0.193420738616871
C             0.697092438124      1.206228481101                   0
H             1.238751481843      2.142336379831      0.004928675883
C             1.394066202537                   0                   0
H             2.475325479251      0.000114333064      0.010977564436
C             0.696663336265       -1.2063436648     -0.001377484826
H             1.238021589736     -2.142768045099      0.001261014205
C             -0.69694068372     -1.206903024974     -0.000507818264
H            -1.237799125947      -2.14373787832      -0.00169760104
C            -1.394117326826      0.000170803848      0.001981006868
H            -2.475865900014      0.000265443726      0.001461018677
C             -0.69676396638      1.206847404824      -9.5703779e-05
H            -1.237425243665      2.143795338383     -0.000181194041
C             2.675235173423       1.40301079528              5.7496
C             3.359111779665      0.187501767162              5.7491
C             4.754468097231      0.173273730475              5.7487
C             5.465451398394      1.374614529527              5.7491
C             4.782966650582      2.592312788129              5.7497
C             3.390848859344      2.595131532673              5.7496
H             1.589319112339      1.421072585834              5.7499
H             2.804129504498     -0.746640734949              5.7489
H              6.55234233061      1.360464212644              5.7492
H             5.348515655308      3.518353177774              5.7501
O             2.683118097231      3.760957170733              5.7491
H              3.31081531629      4.501753695553              5.7448
H             5.287352587305     -0.774109280898              5.7481
