25
-0.291999892522477
C             0.697092438124      1.206228481101                   0
H             1.238751481843      2.142336379831      0.004928675883
C             1.394066202537                   0                   0
H             2.475325479251      0.000114333064      0.010977564436
C             0.696663336265       -1.2063436648     -0.001377484826
H             1.238021589736     -2.142768045099      0.001261014205
C             -0.69694068372     -1.206903024974     -0.000507818264
H            -1.237799125947      -2.14373787832      -0.00169760104
C            -1.394117326826      0.000170803848      0.001981006868
H            -2.475865900014      0.000265443726      0.001461018677
C             -0.69676396638      1.206847404824      -9.5703779e-05
H            -1.237425243665      2.143795338383     -0.000181194041
C                     2.5114              1.8118              5.7496
C                     1.1168              1.8273              5.7491
C                     0.4068               0.626              5.7487
C                     1.0917             -0.5904              5.7491
C                     2.4875             -0.6082              5.7497
C                      3.186               0.596              5.7496
H                       3.07              2.7432              5.7499
H                     0.5853               2.775              5.7489
H                      0.536             -1.5246              5.7492
H                     3.0067              -1.561              5.7501
O                     4.5495               0.626              5.7491
H                     4.8772              -0.288              5.7448
H                    -0.6801              0.6382              5.7481
