25
-1.07037862231709
C             0.697092438124      1.206228481101                   0
H             1.238751481843      2.142336379831      0.004928675883
C             1.394066202537                   0                   0
H             2.475325479251      0.000114333064      0.010977564436
C             0.696663336265       -1.2063436648     -0.001377484826
H             1.238021589736     -2.142768045099      0.001261014205
C             -0.69694068372     -1.206903024974     -0.000507818264
H            -1.237799125947      -2.14373787832      -0.00169760104
C            -1.394117326826      0.000170803848      0.001981006868
H            -2.475865900014      0.000265443726      0.001461018677
C             -0.69676396638      1.206847404824      -9.5703779e-05
H            -1.237425243665      2.143795338383     -0.000181194041
C             0.189829652181      -2.21481079528       5.17040539764
C             0.544758336358     -1.014801767162      4.554650883581
C             0.201733767414      0.200726269525      5.147986865238
C            -0.495861473007      0.215785470473      6.357057264764
C            -0.851999483858     -0.984112788129      6.975106394065
C             -0.50527719078     -2.191131532673      6.374365766336
H             0.453747490344     -3.164272585834      4.713886292917
H             1.087826268861     -1.028359265051      3.613629632525
H            -0.761370336574      1.164135787356      6.817132106322
H            -1.394027576059     -0.957353177774      7.914726588887
O            -0.833594822425     -3.386957170733      6.942028585366
H            -1.315017341191     -3.213753695553      7.767276847777
H             0.478221907134      1.135909280898      4.667895359551
