25
-0.271535820032562
C             0.697092438124      1.206228481101                   0
H             1.238751481843      2.142336379831      0.004928675883
C             1.394066202537                   0                   0
H             2.475325479251      0.000114333064      0.010977564436
C             0.696663336265       -1.2063436648     -0.001377484826
H             1.238021589736     -2.142768045099      0.001261014205
C             -0.69694068372     -1.206903024974     -0.000507818264
H            -1.237799125947      -2.14373787832      -0.00169760104
C            -1.394117326826      0.000170803848      0.001981006868
H            -2.475865900014      0.000265443726      0.001461018677
C             -0.69676396638      1.206847404824      -9.5703779e-05
H            -1.237425243665      2.143795338383     -0.000181194041
C                     4.7496      -0.40301079528      3.675235173423
C                     4.7491      0.812498232838      4.359111779665
C                     4.7487      0.826726269525      5.754468097231
C                     4.7491     -0.374614529527      6.465451398394
C                     4.7497     -1.592312788129      5.782966650582
C                     4.7496     -1.595131532673      4.390848859344
H                     4.7499     -0.421072585834      2.589319112339
H                     4.7489      1.746640734949      3.804129504498
H                     4.7492     -0.360464212644       7.55234233061
H                     4.7501     -2.518353177774      6.348515655308
O                     4.7491     -2.760957170733      3.683118097231
H                     4.7448     -3.501753695553       4.31081531629
H                     4.7481      1.774109280898      6.287352587305
