25
-0.0514554242972536
C             0.697092438124      1.206228481101                   0
H             1.238751481843      2.142336379831      0.004928675883
C             1.394066202537                   0                   0
H             2.475325479251      0.000114333064      0.010977564436
C             0.696663336265       -1.2063436648     -0.001377484826
H             1.238021589736     -2.142768045099      0.001261014205
C             -0.69694068372     -1.206903024974     -0.000507818264
H            -1.237799125947      -2.14373787832      -0.00169760104
C            -1.394117326826      0.000170803848      0.001981006868
H            -2.475865900014      0.000265443726      0.001461018677
C             -0.69676396638      1.206847404824      -9.5703779e-05
H            -1.237425243665      2.143795338383     -0.000181194041
C             8.223817586712      3.324764826577      4.581641841252
C             7.170905889832      2.640888220335      5.188963342609
C             7.158384048615      1.245531902769      5.195730950791
C             8.198975699197      0.534548601606      4.595406961427
C             9.253833325291      1.217033349418      3.987077447368
C             9.256224429672      2.609151140656      3.985581472556
H             8.239609556169      4.410680887661      4.572870753597
H             6.361814752249      3.195870495502      5.655861388584
H             8.186771165305      -0.55234233061      4.602568722409
H            10.056007827654      0.651484344692      3.524403662707
O            10.265609048615      3.316881902769      3.402235640824
H            10.905007658145       2.68918468371      3.028113469178
H             6.337626293652      0.712647412695      5.668902841236
