25
-2.50180439971202
C             0.697092438124      1.206228481101                   0
H             1.238751481843      2.142336379831      0.004928675883
C             1.394066202537                   0                   0
H             2.475325479251      0.000114333064      0.010977564436
C             0.696663336265       -1.2063436648     -0.001377484826
H             1.238021589736     -2.142768045099      0.001261014205
C             -0.69694068372     -1.206903024974     -0.000507818264
H            -1.237799125947      -2.14373787832      -0.00169760104
C            -1.394117326826      0.000170803848      0.001981006868
H            -2.475865900014      0.000265443726      0.001461018677
C             -0.69676396638      1.206847404824      -9.5703779e-05
H            -1.237425243665      2.143795338383     -0.000181194041
C             5.813364826577      -1.21481079528              2.7496
C             6.524088220335     -0.014801767162              2.7491
C             5.838731902769      1.200726269525              2.7487
C             4.442848601606      1.215785470473              2.7491
C             3.729533349418      0.015887211871              2.7497
C             4.423151140656     -1.191131532673              2.7496
H             6.340680887661     -2.164272585834              2.7499
H             7.610570495502     -0.028359265051              2.7489
H              3.91165766939      2.164135787356              2.7492
H             2.644784344692      0.042646822226              2.7501
O             3.767381902769     -2.386957170733              2.7491
H              2.81198468371     -2.213753695553              2.7448
H             6.392747412695      2.135909280898              2.7481
