25
-0.133485973503913
C             0.697092438124      1.206228481101                   0
H             1.238751481843      2.142336379831      0.004928675883
C             1.394066202537                   0                   0
H             2.475325479251      0.000114333064      0.010977564436
C             0.696663336265       -1.2063436648     -0.001377484826
H             1.238021589736     -2.142768045099      0.001261014205
C             -0.69694068372     -1.206903024974     -0.000507818264
H            -1.237799125947      -2.14373787832      -0.00169760104
C            -1.394117326826      0.000170803848      0.001981006868
H            -2.475865900014      0.000265443726      0.001461018677
C             -0.69676396638      1.206847404824      -9.5703779e-05
H            -1.237425243665      2.143795338383     -0.000181194041
C                     5.7496       2.59698920472      3.675235173423
C                     5.7491      3.812498232838      4.359111779665
C                     5.7487      3.826726269525      5.754468097231
C                     5.7491      2.625385470473      6.465451398394
C                     5.7497      1.407687211871      5.782966650582
C                     5.7496      1.404868467327      4.390848859344
H                     5.7499      2.578927414166      2.589319112339
H                     5.7489      4.746640734949      3.804129504498
H                     5.7492      2.639535787356       7.55234233061
H                     5.7501      0.481646822226      6.348515655308
O                     5.7491      0.239042829267      3.683118097231
H                     5.7448     -0.501753695553       4.31081531629
H                     5.7481      4.774109280898      6.287352587305
