25
-0.0124601952661309
C             0.697092438124      1.206228481101                   0
H             1.238751481843      2.142336379831      0.004928675883
C             1.394066202537                   0                   0
H             2.475325479251      0.000114333064      0.010977564436
C             0.696663336265       -1.2063436648     -0.001377484826
H             1.238021589736     -2.142768045099      0.001261014205
C             -0.69694068372     -1.206903024974     -0.000507818264
H            -1.237799125947      -2.14373787832      -0.00169760104
C            -1.394117326826      0.000170803848      0.001981006868
H            -2.475865900014      0.000265443726      0.001461018677
C             -0.69676396638      1.206847404824      -9.5703779e-05
H            -1.237425243665      2.143795338383     -0.000181194041
C             5.027447238892              0.1882       6.18371079528
C              5.72431422619              0.1727      4.975701767162
C             6.078967816029               1.374      4.360623730475
C              5.73686422619              2.5904      4.953964529527
C             5.039483841433              2.6082      6.163062788129
C             4.690147238892               1.404      6.767931532673
H             4.748407046514             -0.7432      6.667622585834
H              5.98989102111              -0.775      4.515309265051
H             6.014800828731              3.5246      4.472764212644
H             4.780230251594               3.561      6.612903177774
O              4.00796422619               1.374      7.948507170733
H             3.840390316954               2.288      8.230153695553
H             6.621898200787              1.3618      3.419040719102
