25
-0.193250056190418
C             0.697092438124      1.206228481101                   0
H             1.238751481843      2.142336379831      0.004928675883
C             1.394066202537                   0                   0
H             2.475325479251      0.000114333064      0.010977564436
C             0.696663336265       -1.2063436648     -0.001377484826
H             1.238021589736     -2.142768045099      0.001261014205
C             -0.69694068372     -1.206903024974     -0.000507818264
H            -1.237799125947      -2.14373787832      -0.00169760104
C            -1.394117326826      0.000170803848      0.001981006868
H            -2.475865900014      0.000265443726      0.001461018677
C             -0.69676396638      1.206847404824      -9.5703779e-05
H            -1.237425243665      2.143795338383     -0.000181194041
C             4.675235173423       2.40301079528              4.7496
C             5.359111779665      1.187501767162              4.7491
C             6.754468097231      1.173273730475              4.7487
C             7.465451398394      2.374614529527              4.7491
C             6.782966650582      3.592312788129              4.7497
C             5.390848859344      3.595131532673              4.7496
H             3.589319112339      2.421072585834              4.7499
H             4.804129504498      0.253359265051              4.7489
H              8.55234233061      2.360464212644              4.7492
H             7.348515655308      4.518353177774              4.7501
O             4.683118097231      4.760957170733              4.7491
H              5.31081531629      5.501753695553              4.7448
H             7.287352587305      0.225890719102              4.7481
