25
-0.21833893281952
C             0.697092438124      1.206228481101                   0
H             1.238751481843      2.142336379831      0.004928675883
C             1.394066202537                   0                   0
H             2.475325479251      0.000114333064      0.010977564436
C             0.696663336265       -1.2063436648     -0.001377484826
H             1.238021589736     -2.142768045099      0.001261014205
C             -0.69694068372     -1.206903024974     -0.000507818264
H            -1.237799125947      -2.14373787832      -0.00169760104
C            -1.394117326826      0.000170803848      0.001981006868
H            -2.475865900014      0.000265443726      0.001461018677
C             -0.69676396638      1.206847404824      -9.5703779e-05
H            -1.237425243665      2.143795338383     -0.000181194041
C             5.556135173423              2.5114      3.877247238892
C             5.542961779665              1.1168       3.86906422619
C             6.583518097231              0.4068      4.469367816029
C             7.636751398394              1.0917       5.07791422619
C             7.651866650582              2.4875      5.087333841433
C             6.609048859344               3.186      4.485147238892
H             4.749369112339                3.07      3.411807046514
H             4.722329504498              0.5853       3.39504102111
H              8.44574233061               0.536      5.545100828731
H             8.476815655308              3.0067      5.564080251594
O             6.583318097231              4.5495       4.46971422619
H              7.37701531629              4.8772      4.922990316954
H             6.573252587305             -0.6801      4.462748200787
