25
-0.183986831125019
C             0.697092438124      1.206228481101                   0
H             1.238751481843      2.142336379831      0.004928675883
C             1.394066202537                   0                   0
H             2.475325479251      0.000114333064      0.010977564436
C             0.696663336265       -1.2063436648     -0.001377484826
H             1.238021589736     -2.142768045099      0.001261014205
C             -0.69694068372     -1.206903024974     -0.000507818264
H            -1.237799125947      -2.14373787832      -0.00169760104
C            -1.394117326826      0.000170803848      0.001981006868
H            -2.475865900014      0.000265443726      0.001461018677
C             -0.69676396638      1.206847404824      -9.5703779e-05
H            -1.237425243665      2.143795338383     -0.000181194041
C              7.43411079528              2.8118      4.538847238892
C             6.226601767162              2.8273       3.84111422619
C             5.611923730475               1.626      3.485767816029
C             6.204864529527              0.4096       3.82856422619
C             7.413362788129              0.3918      4.526983841433
C             8.018331532673               1.596      4.876147238892
H             7.917722585834              3.7432      4.818407046514
H             5.766409265051               3.775       3.57519102111
H             5.723564212644             -0.5246      3.550800828731
H             7.862803177774              -0.561      4.786930251594
O             9.199407170733               1.626       5.55746422619
H             9.485353695553               0.712      5.717590316954
H             4.670940719102              1.6382      2.941798200787
