25
-1.29321441010988
C             0.697092438124      1.206228481101                   0
H             1.238751481843      2.142336379831      0.004928675883
C             1.394066202537                   0                   0
H             2.475325479251      0.000114333064      0.010977564436
C             0.696663336265       -1.2063436648     -0.001377484826
H             1.238021589736     -2.142768045099      0.001261014205
C             -0.69694068372     -1.206903024974     -0.000507818264
H            -1.237799125947      -2.14373787832      -0.00169760104
C            -1.394117326826      0.000170803848      0.001981006868
H            -2.475865900014      0.000265443726      0.001461018677
C             -0.69676396638      1.206847404824      -9.5703779e-05
H            -1.237425243665      2.143795338383     -0.000181194041
C             5.461152761108              1.1882       1.56588920472
C              6.15888577381              1.1727      2.773398232838
C             6.514232183971               2.374      3.388076269525
C              6.17143577381              3.5904      2.795135470473
C             5.473016158567              3.6082      1.586637211871
C             5.123852761108               2.404      0.981668467327
H             5.181592953486              0.2568      1.082277414166
H              6.42480897889               0.225      3.233590734949
H             6.449199171269              4.5246      3.276435787356
H             5.213069748406               4.561      1.137196822226
O              4.44253577381               2.374     -0.199407170733
H             4.282409683046               3.288     -0.485353695553
H             7.058201799213              2.3618      4.329059280898
