25
-0.855225176248095
C             0.697092438124      1.206228481101                   0
H             1.238751481843      2.142336379831      0.004928675883
C             1.394066202537                   0                   0
H             2.475325479251      0.000114333064      0.010977564436
C             0.696663336265       -1.2063436648     -0.001377484826
H             1.238021589736     -2.142768045099      0.001261014205
C             -0.69694068372     -1.206903024974     -0.000507818264
H            -1.237799125947      -2.14373787832      -0.00169760104
C            -1.394117326826      0.000170803848      0.001981006868
H            -2.475865900014      0.000265443726      0.001461018677
C             -0.69676396638      1.206847404824      -9.5703779e-05
H            -1.237425243665      2.143795338383     -0.000181194041
C                     1.7496              2.8118              4.4886
C                     1.7491              2.8273              5.8832
C                     1.7487               1.626              6.5932
C                     1.7491              0.4096              5.9083
C                     1.7497              0.3918              4.5125
C                     1.7496               1.596               3.814
H                     1.7499              3.7432                3.93
H                     1.7489               3.775              6.4147
H                     1.7492             -0.5246               6.464
H                     1.7501              -0.561              3.9933
O                     1.7491               1.626              2.4505
H                     1.7448               0.712              2.1228
H                     1.7481              1.6382              7.6801
