25
-0.406939461056464
C             0.697092438124      1.206228481101                   0
H             1.238751481843      2.142336379831      0.004928675883
C             1.394066202537                   0                   0
H             2.475325479251      0.000114333064      0.010977564436
C             0.696663336265       -1.2063436648     -0.001377484826
H             1.238021589736     -2.142768045099      0.001261014205
C             -0.69694068372     -1.206903024974     -0.000507818264
H            -1.237799125947      -2.14373787832      -0.00169760104
C            -1.394117326826      0.000170803848      0.001981006868
H            -2.475865900014      0.000265443726      0.001461018677
C             -0.69676396638      1.206847404824      -9.5703779e-05
H            -1.237425243665      2.143795338383     -0.000181194041
C                     6.4886              0.1882              2.7496
C                     7.8832              0.1727              2.7491
C                     8.5932               1.374              2.7487
C                     7.9083              2.5904              2.7491
C                     6.5125              2.6082              2.7497
C                      5.814               1.404              2.7496
H                       5.93             -0.7432              2.7499
H                     8.4147              -0.775              2.7489
H                      8.464              3.5246              2.7492
H                     5.9933               3.561              2.7501
O                     4.4505               1.374              2.7491
H                     4.1228               2.288              2.7448
H                     9.6801              1.3618              2.7481
