25
-0.0896778132558294
C             0.697092438124      1.206228481101                   0
H             1.238751481843      2.142336379831      0.004928675883
C             1.394066202537                   0                   0
H             2.475325479251      0.000114333064      0.010977564436
C             0.696663336265       -1.2063436648     -0.001377484826
H             1.238021589736     -2.142768045099      0.001261014205
C             -0.69694068372     -1.206903024974     -0.000507818264
H            -1.237799125947      -2.14373787832      -0.00169760104
C            -1.394117326826      0.000170803848      0.001981006868
H            -2.475865900014      0.000265443726      0.001461018677
C             -0.69676396638      1.206847404824      -9.5703779e-05
H            -1.237425243665      2.143795338383     -0.000181194041
C             3.694264826577             -1.5114      8.689047238892
C             3.707938220335             -0.1168       8.69636422619
C             2.667781902769              0.5932      8.095367816029
C             1.614148601606             -0.0917       7.48751422619
C             1.598433349418             -1.4875      7.479133841433
C             2.641351140656              -2.186      8.081147238892
H             4.500730887661               -2.07      9.155007046514
H             4.528770495502              0.4147       9.17004102111
H              0.80505766939               0.464      7.020500828731
H             0.773084344692             -2.0067      7.003080251594
O             2.667581902769             -3.5495       8.09571422619
H              1.87818468371             -3.8772      7.634990316954
H             2.678647412695              1.6801      8.100948200787
