25
-0.217443038149437
C             0.697092438124      1.206228481101                   0
H             1.238751481843      2.142336379831      0.004928675883
C             1.394066202537                   0                   0
H             2.475325479251      0.000114333064      0.010977564436
C             0.696663336265       -1.2063436648     -0.001377484826
H             1.238021589736     -2.142768045099      0.001261014205
C             -0.69694068372     -1.206903024974     -0.000507818264
H            -1.237799125947      -2.14373787832      -0.00169760104
C            -1.394117326826      0.000170803848      0.001981006868
H            -2.475865900014      0.000265443726      0.001461018677
C             -0.69676396638      1.206847404824      -9.5703779e-05
H            -1.237425243665      2.143795338383     -0.000181194041
C              6.42080539764       2.21481079528      3.376464825604
C             5.805550883581      1.014801767162      3.020670116023
C             6.399286865238     -0.200726269525      3.363001864644
C             7.607957264764     -0.215785470473      4.061289925388
C             8.225406394065      0.984112788129      4.418467166724
C             7.624765766336      2.191131532673      4.071571668565
H             5.963986292917      3.164272585834      3.113066602683
H             4.864729632525      1.028359265051      2.477255773359
H             8.067932106322     -1.164135787356      4.326971994036
H             9.164626588887      0.957353177774      4.961188079248
O             8.192928585366      3.386957170733      4.399023274806
H             9.022476847777      3.213753695553      4.872997975099
H             5.919795359551     -1.135909280898      3.085474494439
