25
-1.12637783927808
C             0.697092438124      1.206228481101                   0
H             1.238751481843      2.142336379831      0.004928675883
C             1.394066202537                   0                   0
H             2.475325479251      0.000114333064      0.010977564436
C             0.696663336265       -1.2063436648     -0.001377484826
H             1.238021589736     -2.142768045099      0.001261014205
C             -0.69694068372     -1.206903024974     -0.000507818264
H            -1.237799125947      -2.14373787832      -0.00169760104
C            -1.394117326826      0.000170803848      0.001981006868
H            -2.475865900014      0.000265443726      0.001461018677
C             -0.69676396638      1.206847404824      -9.5703779e-05
H            -1.237425243665      2.143795338383     -0.000181194041
C             2.877247238892              3.5114      4.443864826577
C              2.86906422619              2.1168      4.457038220335
C             3.469367816029              1.4068      3.416481902769
C              4.07791422619              2.0917      2.363248601606
C             4.087333841433              3.4875      2.348133349418
C             3.485147238892               4.186      3.390951140656
H             2.411807046514                4.07      5.250630887661
H              2.39504102111              1.5853      5.277670495502
H             4.545100828731               1.536       1.55425766939
H             4.564080251594              4.0067      1.523184344692
O              3.46971422619              5.5495      3.416681902769
H             3.922990316954              5.8772       2.62298468371
H             3.462748200787              0.3199      3.426747412695
