25
-0.0851283729638111
C             0.697092438124      1.206228481101                   0
H             1.238751481843      2.142336379831      0.004928675883
C             1.394066202537                   0                   0
H             2.475325479251      0.000114333064      0.010977564436
C             0.696663336265       -1.2063436648     -0.001377484826
H             1.238021589736     -2.142768045099      0.001261014205
C             -0.69694068372     -1.206903024974     -0.000507818264
H            -1.237799125947      -2.14373787832      -0.00169760104
C            -1.394117326826      0.000170803848      0.001981006868
H            -2.475865900014      0.000265443726      0.001461018677
C             -0.69676396638      1.206847404824      -9.5703779e-05
H            -1.237425243665      2.143795338383     -0.000181194041
C                     7.7496              3.8118              1.4886
C                     7.7491              3.8273              2.8832
C                     7.7487               2.626              3.5932
C                     7.7491              1.4096              2.9083
C                     7.7497              1.3918              1.5125
C                     7.7496               2.596               0.814
H                     7.7499              4.7432                0.93
H                     7.7489               4.775              3.4147
H                     7.7492              0.4754               3.464
H                     7.7501               0.439              0.9933
O                     7.7491               2.626             -0.5495
H                     7.7448               1.712             -0.8772
H                     7.7481              2.6382              4.6801
