25
-0.390820574556273
C             0.697092438124      1.206228481101                   0
H             1.238751481843      2.142336379831      0.004928675883
C             1.394066202537                   0                   0
H             2.475325479251      0.000114333064      0.010977564436
C             0.696663336265       -1.2063436648     -0.001377484826
H             1.238021589736     -2.142768045099      0.001261014205
C             -0.69694068372     -1.206903024974     -0.000507818264
H            -1.237799125947      -2.14373787832      -0.00169760104
C            -1.394117326826      0.000170803848      0.001981006868
H            -2.475865900014      0.000265443726      0.001461018677
C             -0.69676396638      1.206847404824      -9.5703779e-05
H            -1.237425243665      2.143795338383     -0.000181194041
C                     5.7496     -2.324764826577       3.40301079528
C                     5.7491     -1.640888220335      2.187501767162
C                     5.7487     -0.245531902769      2.173273730475
C                     5.7491      0.465451398394      3.374614529527
C                     5.7497     -0.217033349418      4.592312788129
C                     5.7496     -1.609151140656      4.595131532673
H                     5.7499     -3.410680887661      3.421072585834
H                     5.7489     -2.195870495502      1.253359265051
H                     5.7492       1.55234233061      3.360464212644
H                     5.7501      0.348515655308      5.518353177774
O                     5.7491     -2.316881902769      5.760957170733
H                     5.7448      -1.68918468371      6.501753695553
H                     5.7481      0.287352587305      1.225890719102
