28
-0.0954282429205611
C             0.697092438124      1.206228481101                   0
H             1.238751481843      2.142336379831      0.004928675883
C             1.394066202537                   0                   0
H             2.475325479251      0.000114333064      0.010977564436
C             0.696663336265       -1.2063436648     -0.001377484826
H             1.238021589736     -2.142768045099      0.001261014205
C             -0.69694068372     -1.206903024974     -0.000507818264
H            -1.237799125947      -2.14373787832      -0.00169760104
C            -1.394117326826      0.000170803848      0.001981006868
H            -2.475865900014      0.000265443726      0.001461018677
C             -0.69676396638      1.206847404824      -9.5703779e-05
H            -1.237425243665      2.143795338383     -0.000181194041
C             4.788070565593      0.855337043677      5.187038196358
C             5.191966125674      0.742213541344      6.522634676687
C             5.406483590949      1.851702077418      7.340922243262
C             5.209368447877      3.138319615065      6.803732183889
C             4.805442438259       3.26935263181      5.469845635236
C             4.598668831649      2.143075090686      4.675827064568
H             4.626099652272     -0.019156023128      4.565781469756
H             5.368519699876      4.020510837465      7.416280792987
H             4.652178244946      4.260990656379       5.05147469877
C             5.802703432453      1.361455848545      8.615984365817
C             5.821316921058     -0.013132371144      8.550153842993
H              6.06492801359     -0.760736859469      9.292745562399
N             5.451131726462     -0.376435879387       7.28224385506
H             5.376688005701     -1.326186649076      6.945647728504
H             4.284904972087      2.266406555016      3.641756799142
H             6.047388176626      1.954880552861      9.486894685411
