28
-0.0788714179834519
C             0.697092438124      1.206228481101                   0
H             1.238751481843      2.142336379831      0.004928675883
C             1.394066202537                   0                   0
H             2.475325479251      0.000114333064      0.010977564436
C             0.696663336265       -1.2063436648     -0.001377484826
H             1.238021589736     -2.142768045099      0.001261014205
C             -0.69694068372     -1.206903024974     -0.000507818264
H            -1.237799125947      -2.14373787832      -0.00169760104
C            -1.394117326826      0.000170803848      0.001981006868
H            -2.475865900014      0.000265443726      0.001461018677
C             -0.69676396638      1.206847404824      -9.5703779e-05
H            -1.237425243665      2.143795338383     -0.000181194041
C             3.855337043677      0.810010291464      7.777055372185
C             3.742213541344     -0.548597969746      8.095069796844
C             4.851702077418     -1.364514522639      8.318436005648
C             6.138319615065     -0.800736713025      8.220547697332
C              6.26935263181      0.556405928683      7.903414608584
C             5.143075090686      1.347432985263      7.685476519407
H             2.980843976872      1.429019855634      7.606697934494
H             7.020510837465     -1.410794995556      8.388992974606
H             7.260990656379      0.995357884525      7.826959825251
C             4.361455848545     -2.666860632927      8.612830618699
C             2.986867628856     -2.619156472119      8.563795603302
H             2.239263140531     -3.384065312031      8.724118068229
N             2.623564120613     -1.336021615559      8.250430391961
H             1.673813350924     -1.007298958766      8.146602482014
H             5.266406555016      2.399846034202      7.440168859863
H             4.954880552861       -3.5434334662      8.836382574124
