28
-0.420685045654989
C             0.697092438124      1.206228481101                   0
H             1.238751481843      2.142336379831      0.004928675883
C             1.394066202537                   0                   0
H             2.475325479251      0.000114333064      0.010977564436
C             0.696663336265       -1.2063436648     -0.001377484826
H             1.238021589736     -2.142768045099      0.001261014205
C             -0.69694068372     -1.206903024974     -0.000507818264
H            -1.237799125947      -2.14373787832      -0.00169760104
C            -1.394117326826      0.000170803848      0.001981006868
H            -2.475865900014      0.000265443726      0.001461018677
C             -0.69676396638      1.206847404824      -9.5703779e-05
H            -1.237425243665      2.143795338383     -0.000181194041
C             7.222944627815      2.144662956323      3.810010291464
C             6.904930203156      2.257786458656      2.451402030254
C             6.681563994352      1.148297922582      1.635485477361
C             6.779452302668     -0.138319615065      2.199263286975
C             7.096585391416      -0.26935263181      3.556405928683
C             7.314523480593      0.856924909314      4.347432985263
H             7.393302065506      3.019156023128      4.429019855634
H             6.611007025394     -1.020510837465      1.589205004444
H             7.173040174749     -1.260990656379      3.995357884525
C             6.387169381301      1.638544151455      0.333139367073
C             6.436204396698      3.013132371144      0.380843527881
H             6.275881931771      3.760736859469     -0.384065312031
N             6.749569608039      3.376435879387      1.663978384441
H             6.853397517986      4.326186649076      1.992701041234
H             7.559831140137      0.733593444984      5.399846034202
H             6.163617425876      1.045119447139       -0.5434334662
