28
-0.0417709523863502
C             0.697092438124      1.206228481101                   0
H             1.238751481843      2.142336379831      0.004928675883
C             1.394066202537                   0                   0
H             2.475325479251      0.000114333064      0.010977564436
C             0.696663336265       -1.2063436648     -0.001377484826
H             1.238021589736     -2.142768045099      0.001261014205
C             -0.69694068372     -1.206903024974     -0.000507818264
H            -1.237799125947      -2.14373787832      -0.00169760104
C            -1.394117326826      0.000170803848      0.001981006868
H            -2.475865900014      0.000265443726      0.001461018677
C             -0.69676396638      1.206847404824      -9.5703779e-05
H            -1.237425243665      2.143795338383     -0.000181194041
C             4.777055372185     -0.273820967896      6.413697946785
C             5.095069796844      0.846206548937      5.636425989395
C             5.318436005648      2.107555279147      6.189312970396
C             5.220547697332      2.262618142755       7.58544534776
C             4.903414608584      1.152814646849       8.37749458985
C             4.685476519407     -0.095373649792      7.797623155814
H             4.606697934494     -1.247145509055      5.965869517584
H             5.388992974606      3.232039724416      8.044416216089
H             4.826959825251      1.268490114334      9.455754288406
C             5.612830618699       2.99029698074      5.113574226938
C             5.563795603302       2.26168985577      3.946997989349
H             5.724118068229       2.55031809855       2.91709909052
N             5.250430391961      0.968810719386      4.273935350207
H             5.146602482014      0.209253162959      3.615788384788
H             4.440168859863     -0.945124353282       8.43063786148
H             5.836382574124       4.04614367478      5.189208679473
