28
-3.39008813057747
C             0.697092438124      1.206228481101                   0
H             1.238751481843      2.142336379831      0.004928675883
C             1.394066202537                   0                   0
H             2.475325479251      0.000114333064      0.010977564436
C             0.696663336265       -1.2063436648     -0.001377484826
H             1.238021589736     -2.142768045099      0.001261014205
C             -0.69694068372     -1.206903024974     -0.000507818264
H            -1.237799125947      -2.14373787832      -0.00169760104
C            -1.394117326826      0.000170803848      0.001981006868
H            -2.475865900014      0.000265443726      0.001461018677
C             -0.69676396638      1.206847404824      -9.5703779e-05
H            -1.237425243665      2.143795338383     -0.000181194041
C             1.187038196358     -0.144662956323      3.211929434407
C             2.522634676687     -0.257786458656      2.808033874326
C             3.340922243262      0.851702077418      2.593516409051
C             2.803732183889      2.138319615065      2.790631552123
C             1.469845635236       2.26935263181      3.194557561741
C             0.675827064568      1.143075090686      3.401331168351
H             0.565781469756     -1.019156023128      3.373900347728
H             3.416280792987      3.020510837465      2.631480300124
H              1.05147469877      3.260990656379      3.347821755054
C             4.615984365817      0.361455848545      2.197296567547
C             4.550153842993     -1.013132371144      2.178683078942
H             5.292745562399     -1.760736859469  1.9350719864100001
N              3.28224385506     -1.376435879387      2.548868273538
H             2.945647728504     -2.326186649076      2.623311994299
H            -0.358243200858      1.266406555016      3.715095027913
H             5.486894685411      0.954880552861      1.952611823374
