28
-0.0876748672300463
C             0.697092438124      1.206228481101                   0
H             1.238751481843      2.142336379831      0.004928675883
C             1.394066202537                   0                   0
H             2.475325479251      0.000114333064      0.010977564436
C             0.696663336265       -1.2063436648     -0.001377484826
H             1.238021589736     -2.142768045099      0.001261014205
C             -0.69694068372     -1.206903024974     -0.000507818264
H            -1.237799125947      -2.14373787832      -0.00169760104
C            -1.394117326826      0.000170803848      0.001981006868
H            -2.475865900014      0.000265443726      0.001461018677
C             -0.69676396638      1.206847404824      -9.5703779e-05
H            -1.237425243665      2.143795338383     -0.000181194041
C             3.413697946785      2.273820967896      6.777055372185
C             2.636425989395      1.153793451063      7.095069796844
C             3.189312970396     -0.107555279147      7.318436005648
C              4.58544534776     -0.262618142755      7.220547697332
C              5.37749458985      0.847185353151      6.903414608584
C             4.797623155814      2.095373649792      6.685476519407
H             2.965869517584      3.247145509055      6.606697934494
H             5.044416216089     -1.232039724416      7.388992974606
H             6.455754288406      0.731509885666      6.826959825251
C             2.113574226938      -0.99029698074      7.612830618699
C             0.946997989349      -0.26168985577      7.563795603302
H             -0.08290090948      -0.55031809855      7.724118068229
N             1.273935350207      1.031189280614      7.250430391961
H             0.615788384788      1.790746837041      7.146602482014
H              5.43063786148      2.945124353282      6.440168859863
H             2.189208679473      -2.04614367478      7.836382574124
