28
-0.0778519668423535
C             0.697092438124      1.206228481101                   0
H             1.238751481843      2.142336379831      0.004928675883
C             1.394066202537                   0                   0
H             2.475325479251      0.000114333064      0.010977564436
C             0.696663336265       -1.2063436648     -0.001377484826
H             1.238021589736     -2.142768045099      0.001261014205
C             -0.69694068372     -1.206903024974     -0.000507818264
H            -1.237799125947      -2.14373787832      -0.00169760104
C            -1.394117326826      0.000170803848      0.001981006868
H            -2.475865900014      0.000265443726      0.001461018677
C             -0.69676396638      1.206847404824      -9.5703779e-05
H            -1.237425243665      2.143795338383     -0.000181194041
C             8.100075315282     -1.273820967896      3.380775213717
C             8.764119864502     -0.153793451063      2.866645165297
C             8.681117185173      1.107555279147      3.457142440669
C             7.898277234756      1.262618142755      4.617284392354
C             7.227607302474      0.152814646849      5.144652612678
C             7.328803097813     -1.095373649792      4.533500175285
H             8.176455661119     -2.247145509055      2.907765698646
H             7.814669689858      2.232039724416       5.09898746256
H             6.622265668589      0.268490114334      6.040225511837
C             9.473939770541       1.99029698074      2.672722667524
C            10.014762320327       1.26168985577      1.637920502622
H            10.668555097166       1.55031809855       0.82616312537
N             9.579911406215     -0.031189280614      1.764373956901
H             9.819067281288     -0.790746837041      1.142488010451
H             6.799853080072     -1.945124353282      4.959053161589
H             9.629724216738       3.04614367478      2.850000002533
