28
-0.717586912985743
C             0.697092438124      1.206228481101                   0
H             1.238751481843      2.142336379831      0.004928675883
C             1.394066202537                   0                   0
H             2.475325479251      0.000114333064      0.010977564436
C             0.696663336265       -1.2063436648     -0.001377484826
H             1.238021589736     -2.142768045099      0.001261014205
C             -0.69694068372     -1.206903024974     -0.000507818264
H            -1.237799125947      -2.14373787832      -0.00169760104
C            -1.394117326826      0.000170803848      0.001981006868
H            -2.475865900014      0.000265443726      0.001461018677
C             -0.69676396638      1.206847404824      -9.5703779e-05
H            -1.237425243665      2.143795338383     -0.000181194041
C            -0.619224786283      1.273820967896      4.100075315282
C            -1.133354834703      0.153793451063      4.764119864502
C            -0.542857559331     -1.107555279147      4.681117185173
C             0.617284392354     -1.262618142755      3.898277234756
C             1.144652612678     -0.152814646849      3.227607302474
C             0.533500175285      1.095373649792      3.328803097813
H            -1.092234301354      2.247145509055      4.176455661119
H              1.09898746256     -2.232039724416      3.814669689858
H             2.040225511837     -0.268490114334      2.622265668589
C            -1.327277332476      -1.99029698074      5.473939770541
C            -2.362079497378      -1.26168985577      6.014762320327
H             -3.17383687463      -1.55031809855      6.668555097166
N            -2.235626043099      0.031189280614      5.579911406215
H            -2.857511989549      0.790746837041      5.819067281288
H             0.959053161589      1.945124353282      2.799853080072
H            -1.149999997467      -3.04614367478      5.629724216738
