28
-2.52288274080059
C             0.697092438124      1.206228481101                   0
H             1.238751481843      2.142336379831      0.004928675883
C             1.394066202537                   0                   0
H             2.475325479251      0.000114333064      0.010977564436
C             0.696663336265       -1.2063436648     -0.001377484826
H             1.238021589736     -2.142768045099      0.001261014205
C             -0.69694068372     -1.206903024974     -0.000507818264
H            -1.237799125947      -2.14373787832      -0.00169760104
C            -1.394117326826      0.000170803848      0.001981006868
H            -2.475865900014      0.000265443726      0.001461018677
C             -0.69676396638      1.206847404824      -9.5703779e-05
H            -1.237425243665      2.143795338383     -0.000181194041
C            -0.379255766837      0.810010291464      3.897220487146
C            -0.711226088528     -0.548597969746       3.95825987269
C            -0.349922631662     -1.364514522639       5.03078823454
C             0.378159898897     -0.800736713025      6.096087552938
C             0.718321718506      0.556405928683      6.050998929801
C             0.343922869623      1.347432985263      4.966644922886
H            -0.668968431475      1.429019855634      3.054708557014
H              0.67337762083     -1.410794995556       6.94431020117
H             1.280352515397      0.995357884525      6.871555258769
C            -0.849998959738     -2.666860632927      4.753419852751
C            -1.494827500574     -2.619156472119      3.538474027059
H             -2.00747307216     -3.384065312031       2.97119078065
N            -1.405097021011     -1.336021615559      3.067161353967
H             -1.79005479822     -1.007298958766      2.192739105178
H             0.618031266696      2.399846034202       4.95079927431
H            -0.746888280044       -3.5434334662      5.379116699635
