28
-0.0526754272912172
C             0.697092438124      1.206228481101                   0
H             1.238751481843      2.142336379831      0.004928675883
C             1.394066202537                   0                   0
H             2.475325479251      0.000114333064      0.010977564436
C             0.696663336265       -1.2063436648     -0.001377484826
H             1.238021589736     -2.142768045099      0.001261014205
C             -0.69694068372     -1.206903024974     -0.000507818264
H            -1.237799125947      -2.14373787832      -0.00169760104
C            -1.394117326826      0.000170803848      0.001981006868
H            -2.475865900014      0.000265443726      0.001461018677
C             -0.69676396638      1.206847404824      -9.5703779e-05
H            -1.237425243665      2.143795338383     -0.000181194041
C             4.223326433032      1.396312344679      8.871503294461
C             2.996379111402      0.814976040859      8.530336355403
C             2.753181221055     -0.553827493035      8.647847069506
C             3.782080468701     -1.386182060785      9.128850644791
C             5.015242954975     -0.821088661167       9.47462358988
C             5.229789810835      0.549809829449      9.346839045959
H             4.394095719362       2.46315033805      8.773385162874
H             3.622314122963     -2.455211211645      9.231113354427
H              5.81207617384     -1.460396403881      9.846393083815
C             1.416941487656     -0.780434859865      8.216306317913
C             0.882022956964      0.433845538532      7.850850201545
H             -0.09554214487      0.698835597449      7.471577163416
N             1.843741671343      1.390043034234      8.044255781931
H             1.730943472004      2.376912656446      7.859241567664
H             6.195157517909      0.969208172722      9.620937464961
H             0.904696319574     -1.732642145673      8.178696995515
