28
-0.099144162962322
C             0.697092438124      1.206228481101                   0
H             1.238751481843      2.142336379831      0.004928675883
C             1.394066202537                   0                   0
H             2.475325479251      0.000114333064      0.010977564436
C             0.696663336265       -1.2063436648     -0.001377484826
H             1.238021589736     -2.142768045099      0.001261014205
C             -0.69694068372     -1.206903024974     -0.000507818264
H            -1.237799125947      -2.14373787832      -0.00169760104
C            -1.394117326826      0.000170803848      0.001981006868
H            -2.475865900014      0.000265443726      0.001461018677
C             -0.69676396638      1.206847404824      -9.5703779e-05
H            -1.237425243665      2.143795338383     -0.000181194041
C             4.999618194783     -1.396312344679      2.742345282888
C             5.908551091754     -0.814976040859      3.634329362996
C             5.928382773297      0.553827493035      3.903700271235
C             4.997371833967      1.386182060785      3.253149172481
C             4.081342436441      0.821088661167      2.358085604919
C             4.084733669758     -0.549809829449      2.108390305481
H             4.999206346144      -2.46315033805      2.545395676947
H             4.988692902431      2.455211211645      3.442642241378
H             3.360964000909      1.460396403881       1.85389254177
C             6.970227893645      0.780434859865      4.845147450108
C             7.554181439734     -0.433845538532      5.125672428459
H             8.371424076641     -0.698835597449      5.782632121435
N             6.905827936696     -1.390043034234      4.389502380704
H             7.122454045982     -2.376912656446      4.394681379699
H             3.364673622228     -0.969208172722      1.409406556663
H             7.258921106302      1.732642145673      5.269960117434
