28
-0.118237002819119
C             0.697092438124      1.206228481101                   0
H             1.238751481843      2.142336379831      0.004928675883
C             1.394066202537                   0                   0
H             2.475325479251      0.000114333064      0.010977564436
C             0.696663336265       -1.2063436648     -0.001377484826
H             1.238021589736     -2.142768045099      0.001261014205
C             -0.69694068372     -1.206903024974     -0.000507818264
H            -1.237799125947      -2.14373787832      -0.00169760104
C            -1.394117326826      0.000170803848      0.001981006868
H            -2.475865900014      0.000265443726      0.001461018677
C             -0.69676396638      1.206847404824      -9.5703779e-05
H            -1.237425243665      2.143795338383     -0.000181194041
C             8.222944627815      1.870841988427      4.396312344679
C             7.904930203156      3.103993007593      3.814976040859
C             7.681563994352      3.255853201729      2.446172506965
C             7.779452302668       2.12429852769      1.613817939215
C             8.096585391416      0.883462015039      2.178911338833
C             8.314523480593      0.761551259522      3.549809829449
H             8.393302065506      1.772010514073       5.46315033805
H             7.611007025394      2.211528886951      0.544788788355
H             8.173040174749      0.007499457955      1.539603596119
C             7.387169381301      4.628841132195      2.219565140135
C             7.436204396698      5.274822226914      3.433845538532
H             7.275881931771      6.311054958019      3.698835597449
N             7.749569608039      4.345246598773      4.390043034234
H             7.853397517986      4.535439812035      5.376912656446
H             8.559831140137     -0.211530908298      3.969208172722
H             7.163617425876      5.091263121919      1.267357854327
