28
-0.509597988139694
C             0.697092438124      1.206228481101                   0
H             1.238751481843      2.142336379831      0.004928675883
C             1.394066202537                   0                   0
H             2.475325479251      0.000114333064      0.010977564436
C             0.696663336265       -1.2063436648     -0.001377484826
H             1.238021589736     -2.142768045099      0.001261014205
C             -0.69694068372     -1.206903024974     -0.000507818264
H            -1.237799125947      -2.14373787832      -0.00169760104
C            -1.394117326826      0.000170803848      0.001981006868
H            -2.475865900014      0.000265443726      0.001461018677
C             -0.69676396638      1.206847404824      -9.5703779e-05
H            -1.237425243665      2.143795338383     -0.000181194041
C             6.590017175827      3.144662956323      2.401919142943
C             5.572435120157      3.257786458656      3.356631844073
C             4.977513762386      2.148297922582       3.95803093169
C             5.416815513443      0.861680384935      3.591368265148
C             6.433568973348       0.73064736819      2.638151633058
C             7.009649454839      1.856924909314      2.053898183088
H             7.040916464738      4.019156023128      1.944880492094
H             4.972712181619     -0.020510837465      4.042275295681
H             6.775485126481     -0.260990656379       2.35246387053
C             3.996846252882      2.638544151455      4.864157200474
C             4.013641760309      4.013132371144      4.797839551061
H              3.43137250583      4.760736859469      5.319137298441
N             4.968186536901      4.376435879387      3.884889889098
H              5.20095475351      5.326186649076      3.630610953065
H             7.798412060721      1.733593444984      1.315248993711
H             3.349487888713      2.045119447139      5.496045289574
