28
-0.544290011488735
C             0.697092438124      1.206228481101                   0
H             1.238751481843      2.142336379831      0.004928675883
C             1.394066202537                   0                   0
H             2.475325479251      0.000114333064      0.010977564436
C             0.696663336265       -1.2063436648     -0.001377484826
H             1.238021589736     -2.142768045099      0.001261014205
C             -0.69694068372     -1.206903024974     -0.000507818264
H            -1.237799125947      -2.14373787832      -0.00169760104
C            -1.394117326826      0.000170803848      0.001981006868
H            -2.475865900014      0.000265443726      0.001461018677
C             -0.69676396638      1.206847404824      -9.5703779e-05
H            -1.237425243665      2.143795338383     -0.000181194041
C             2.871503294461      1.396312344679      3.776673566968
C             2.530336355403      0.814976040859      5.003620888598
C             2.647847069506     -0.553827493035      5.246818778945
C             3.128850644791     -1.386182060785      4.217919531299
C              3.47462358988     -0.821088661167      2.984757045025
C             3.346839045959      0.549809829449      2.770210189165
H             2.773385162874       2.46315033805      3.605904280638
H             3.231113354427     -2.455211211645      4.377685877037
H             3.846393083815     -1.460396403881       2.18792382616
C             2.216306317913     -0.780434859865      6.583058512344
C             1.850850201545      0.433845538532      7.117977043036
H             1.471577163416      0.698835597449       8.09554214487
N             2.044255781931      1.390043034234      6.156258328657
H             1.859241567664      2.376912656446      6.269056527996
H             3.620937464961      0.969208172722      1.804842482091
H             2.178696995515     -1.732642145673      7.095303680426
