28
-2.75524806848705
C             0.697092438124      1.206228481101                   0
H             1.238751481843      2.142336379831      0.004928675883
C             1.394066202537                   0                   0
H             2.475325479251      0.000114333064      0.010977564436
C             0.696663336265       -1.2063436648     -0.001377484826
H             1.238021589736     -2.142768045099      0.001261014205
C             -0.69694068372     -1.206903024974     -0.000507818264
H            -1.237799125947      -2.14373787832      -0.00169760104
C            -1.394117326826      0.000170803848      0.001981006868
H            -2.475865900014      0.000265443726      0.001461018677
C             -0.69676396638      1.206847404824      -9.5703779e-05
H            -1.237425243665      2.143795338383     -0.000181194041
C             2.214633631979      0.586302053215      4.443834772623
C             1.085654137134      1.363574010605      4.159229584731
C            -0.118389010661      0.810687029604      3.721996030797
C            -0.203733235571      -0.58544534776      3.559690837258
C             0.915951329466      -1.37749458985      3.839947273975
C             2.105883147653     -0.797623155814      4.275301500616
H             3.142736129595      1.034130482416      4.782963174438
H            -1.127499590904     -1.044416216089      3.220857935694
H             0.854000827696     -2.455754288406      3.715897755625
C            -1.030063055745      1.886425773062       3.53557839364
C            -0.374553268445      3.053002010651      3.857416387117
H            -0.704673891405       4.08290090948      3.851945593151
N             0.901795513357      2.726064649793      4.232473721625
H             1.611505607833      3.384211615212      4.522334892203
H              2.96444267353      -1.43063786148      4.487734187453
H            -2.056229092999      1.810791320527      3.201256719084
