28
-0.597694164887007
C             0.697092438124      1.206228481101                   0
H             1.238751481843      2.142336379831      0.004928675883
C             1.394066202537                   0                   0
H             2.475325479251      0.000114333064      0.010977564436
C             0.696663336265       -1.2063436648     -0.001377484826
H             1.238021589736     -2.142768045099      0.001261014205
C             -0.69694068372     -1.206903024974     -0.000507818264
H            -1.237799125947      -2.14373787832      -0.00169760104
C            -1.394117326826      0.000170803848      0.001981006868
H            -2.475865900014      0.000265443726      0.001461018677
C             -0.69676396638      1.206847404824      -9.5703779e-05
H            -1.237425243665      2.143795338383     -0.000181194041
C             5.401919142943     -0.144662956323      3.590017175827
C             6.356631844073     -0.257786458656      2.572435120157
C              6.95803093169      0.851702077418      1.977513762386
C             6.591368265148      2.138319615065      2.416815513443
C             5.638151633058       2.26935263181      3.433568973348
C             5.053898183088      1.143075090686      4.009649454839
H             4.944880492094     -1.019156023128      4.040916464738
H             7.042275295681      3.020510837465      1.972712181619
H              5.35246387053      3.260990656379      3.775485126481
C             7.864157200474      0.361455848545      0.996846252882
C             7.797839551061     -1.013132371144      1.013641760309
H             8.319137298441     -1.760736859469       0.43137250583
N             6.884889889098     -1.376435879387      1.968186536901
H             6.630610953065     -2.326186649076       2.20095475351
H             4.315248993711      1.266406555016      4.798412060721
H             8.496045289574      0.954880552861      0.349487888713
