28
-0.535586085144335
C             0.697092438124      1.206228481101                   0
H             1.238751481843      2.142336379831      0.004928675883
C             1.394066202537                   0                   0
H             2.475325479251      0.000114333064      0.010977564436
C             0.696663336265       -1.2063436648     -0.001377484826
H             1.238021589736     -2.142768045099      0.001261014205
C             -0.69694068372     -1.206903024974     -0.000507818264
H            -1.237799125947      -2.14373787832      -0.00169760104
C            -1.394117326826      0.000170803848      0.001981006868
H            -2.475865900014      0.000265443726      0.001461018677
C             -0.69676396638      1.206847404824      -9.5703779e-05
H            -1.237425243665      2.143795338383     -0.000181194041
C             2.619224786283     -1.273820967896      6.100075315282
C             3.133354834703     -0.153793451063      6.764119864502
C             2.542857559331      1.107555279147      6.681117185173
C             1.382715607646      1.262618142755      5.898277234756
C             0.855347387322      0.152814646849      5.227607302474
C             1.466499824715     -1.095373649792      5.328803097813
H             3.092234301354     -2.247145509055      6.176455661119
H              0.90101253744      2.232039724416      5.814669689858
H            -0.040225511837      0.268490114334      4.622265668589
C             3.327277332476       1.99029698074      7.473939770541
C             4.362079497378       1.26168985577      8.014762320327
H              5.17383687463       1.55031809855      8.668555097166
N             4.235626043099     -0.031189280614      7.579911406215
H             4.857511989549     -0.790746837041      7.819067281288
H             1.040946838411     -1.945124353282      4.799853080072
H             3.149999997467       3.04614367478      7.629724216738
