28
-0.224225531923995
C             0.697092438124      1.206228481101                   0
H             1.238751481843      2.142336379831      0.004928675883
C             1.394066202537                   0                   0
H             2.475325479251      0.000114333064      0.010977564436
C             0.696663336265       -1.2063436648     -0.001377484826
H             1.238021589736     -2.142768045099      0.001261014205
C             -0.69694068372     -1.206903024974     -0.000507818264
H            -1.237799125947      -2.14373787832      -0.00169760104
C            -1.394117326826      0.000170803848      0.001981006868
H            -2.475865900014      0.000265443726      0.001461018677
C             -0.69676396638      1.206847404824      -9.5703779e-05
H            -1.237425243665      2.143795338383     -0.000181194041
C             7.396312344679     -0.129158011573      4.777055372185
C             6.814976040859      1.103993007593      5.095069796844
C             5.446172506965      1.255853201729      5.318436005648
C             4.613817939215       0.12429852769      5.220547697332
C             5.178911338833     -1.116537984961      4.903414608584
C             6.549809829449     -1.238448740478      4.685476519407
H              8.46315033805     -0.227989485927      4.606697934494
H             3.544788788355      0.211528886951      5.388992974606
H             4.539603596119     -1.992500542045      4.826959825251
C             5.219565140135      2.628841132195      5.612830618699
C             6.433845538532      3.274822226914      5.563795603302
H             6.698835597449      4.311054958019      5.724118068229
N             7.390043034234      2.345246598773      5.250430391961
H             8.376912656446      2.535439812035      5.146602482014
H             6.969208172722     -2.211530908298      4.440168859863
H             4.267357854327      3.091263121919      5.836382574124
