28
-1.03121936248445
C             0.697092438124      1.206228481101                   0
H             1.238751481843      2.142336379831      0.004928675883
C             1.394066202537                   0                   0
H             2.475325479251      0.000114333064      0.010977564436
C             0.696663336265       -1.2063436648     -0.001377484826
H             1.238021589736     -2.142768045099      0.001261014205
C             -0.69694068372     -1.206903024974     -0.000507818264
H            -1.237799125947      -2.14373787832      -0.00169760104
C            -1.394117326826      0.000170803848      0.001981006868
H            -2.475865900014      0.000265443726      0.001461018677
C             -0.69676396638      1.206847404824      -9.5703779e-05
H            -1.237425243665      2.143795338383     -0.000181194041
C             4.777055372185      0.855337043677      4.810010291464
C             5.095069796844      0.742213541344      3.451402030254
C             5.318436005648      1.851702077418      2.635485477361
C             5.220547697332      3.138319615065      3.199263286975
C             4.903414608584       3.26935263181      4.556405928683
C             4.685476519407      2.143075090686      5.347432985263
H             4.606697934494     -0.019156023128      5.429019855634
H             5.388992974606      4.020510837465      2.589205004444
H             4.826959825251      4.260990656379      4.995357884525
C             5.612830618699      1.361455848545      1.333139367073
C             5.563795603302     -0.013132371144      1.380843527881
H             5.724118068229     -0.760736859469      0.615934687969
N             5.250430391961     -0.376435879387      2.663978384441
H             5.146602482014     -1.326186649076      2.992701041234
H             4.440168859863      2.266406555016      6.399846034202
H             5.836382574124      1.954880552861        0.4565665338
