28
-0.210822567254443
C             0.697092438124      1.206228481101                   0
H             1.238751481843      2.142336379831      0.004928675883
C             1.394066202537                   0                   0
H             2.475325479251      0.000114333064      0.010977564436
C             0.696663336265       -1.2063436648     -0.001377484826
H             1.238021589736     -2.142768045099      0.001261014205
C             -0.69694068372     -1.206903024974     -0.000507818264
H            -1.237799125947      -2.14373787832      -0.00169760104
C            -1.394117326826      0.000170803848      0.001981006868
H            -2.475865900014      0.000265443726      0.001461018677
C             -0.69676396638      1.206847404824      -9.5703779e-05
H            -1.237425243665      2.143795338383     -0.000181194041
C             4.222944627815      3.396312344679      8.129158011573
C             3.904930203156      2.814976040859      6.896006992407
C             3.681563994352      1.446172506965      6.744146798271
C             3.779452302668      0.613817939215       7.87570147231
C             4.096585391416      1.178911338833      9.116537984961
C             4.314523480593      2.549809829449      9.238448740478
H             4.393302065506       4.46315033805      8.227989485927
H             3.611007025394     -0.455211211645      7.788471113049
H             4.173040174749      0.539603596119      9.992500542045
C             3.387169381301      1.219565140135      5.371158867805
C             3.436204396698      2.433845538532      4.725177773086
H             3.275881931771      2.698835597449      3.688945041981
N             3.749569608039      3.390043034234      5.654753401227
H             3.853397517986      4.376912656446      5.464560187965
H             4.559831140137      2.969208172722     10.211530908298
H             3.163617425876      0.267357854327      4.908736878081
