28
-0.323808888506311
C             0.697092438124      1.206228481101                   0
H             1.238751481843      2.142336379831      0.004928675883
C             1.394066202537                   0                   0
H             2.475325479251      0.000114333064      0.010977564436
C             0.696663336265       -1.2063436648     -0.001377484826
H             1.238021589736     -2.142768045099      0.001261014205
C             -0.69694068372     -1.206903024974     -0.000507818264
H            -1.237799125947      -2.14373787832      -0.00169760104
C            -1.394117326826      0.000170803848      0.001981006868
H            -2.475865900014      0.000265443726      0.001461018677
C             -0.69676396638      1.206847404824      -9.5703779e-05
H            -1.237425243665      2.143795338383     -0.000181194041
C             1.777055372185     -0.396312344679      9.129158011573
C             2.095069796844      0.185023959141      7.896006992407
C             2.318436005648      1.553827493035      7.744146798271
C             2.220547697332      2.386182060785       8.87570147231
C             1.903414608584      1.821088661167     10.116537984961
C             1.685476519407      0.450190170551     10.238448740478
H             1.606697934494      -1.46315033805      9.227989485927
H             2.388992974606      3.455211211645      8.788471113049
H             1.826959825251      2.460396403881     10.992500542045
C             2.612830618699      1.780434859865      6.371158867805
C             2.563795603302      0.566154461468      5.725177773086
H             2.724118068229      0.301164402551      4.688945041981
N             2.250430391961     -0.390043034234      6.654753401227
H             2.146602482014     -1.376912656446      6.464560187965
H             1.440168859863      0.030791827278     11.211530908298
H             2.836382574124      2.732642145673      5.908736878081
