28
-0.45629925620864
C             0.697092438124      1.206228481101                   0
H             1.238751481843      2.142336379831      0.004928675883
C             1.394066202537                   0                   0
H             2.475325479251      0.000114333064      0.010977564436
C             0.696663336265       -1.2063436648     -0.001377484826
H             1.238021589736     -2.142768045099      0.001261014205
C             -0.69694068372     -1.206903024974     -0.000507818264
H            -1.237799125947      -2.14373787832      -0.00169760104
C            -1.394117326826      0.000170803848      0.001981006868
H            -2.475865900014      0.000265443726      0.001461018677
C             -0.69676396638      1.206847404824      -9.5703779e-05
H            -1.237425243665      2.143795338383     -0.000181194041
C             6.120165114961      0.810010291464      2.234592810513
C             5.863190075846     -0.548597969746      2.453439629872
C             6.712352228892     -1.364514522639       3.20162470908
C             7.875539855606     -0.800736713025      3.760159716168
C             8.147584321217      0.556405928683      3.551030913305
C             7.281168403479      1.347432985263      2.799152221063
H              5.44801062252      1.429019855634      1.649812408347
H             8.555317226564     -1.410794995556      4.347133216635
H             9.044595433518      0.995357884525      3.980638140982
C             6.140589234052     -2.666860632927      3.211454808283
C             4.974678423757     -2.619156472119      2.481695129429
H             4.247072712421     -3.384065312031      2.246736212691
N             4.816730962006     -1.336021615559      2.028661141625
H             4.046136623164     -1.007298958766      1.463868149144
H             7.510630414447      2.399846034202       2.64837528832
H             6.542734125511       -3.5434334662      3.701768832904
