28
-0.00393203414586611
C             0.697092438124      1.206228481101                   0
H             1.238751481843      2.142336379831      0.004928675883
C             1.394066202537                   0                   0
H             2.475325479251      0.000114333064      0.010977564436
C             0.696663336265       -1.2063436648     -0.001377484826
H             1.238021589736     -2.142768045099      0.001261014205
C             -0.69694068372     -1.206903024974     -0.000507818264
H            -1.237799125947      -2.14373787832      -0.00169760104
C            -1.394117326826      0.000170803848      0.001981006868
H            -2.475865900014      0.000265443726      0.001461018677
C             -0.69676396638      1.206847404824      -9.5703779e-05
H            -1.237425243665      2.143795338383     -0.000181194041
C             4.777055372185      1.870841988427      4.603687655321
C             5.095069796844      3.103993007593      5.185023959141
C             5.318436005648      3.255853201729      6.553827493035
C             5.220547697332       2.12429852769      7.386182060785
C             4.903414608584      0.883462015039      6.821088661167
C             4.685476519407      0.761551259522      5.450190170551
H             4.606697934494      1.772010514073       3.53684966195
H             5.388992974606      2.211528886951      8.455211211645
H             4.826959825251      0.007499457955      7.460396403881
C             5.612830618699      4.628841132195      6.780434859865
C             5.563795603302      5.274822226914      5.566154461468
H             5.724118068229      6.311054958019      5.301164402551
N             5.250430391961      4.345246598773      4.609956965766
H             5.146602482014      4.535439812035      3.623087343554
H             4.440168859863     -0.211530908298      5.030791827278
H             5.836382574124      5.091263121919      7.732642145673
