28
-0.217818790574186
C             0.697092438124      1.206228481101                   0
H             1.238751481843      2.142336379831      0.004928675883
C             1.394066202537                   0                   0
H             2.475325479251      0.000114333064      0.010977564436
C             0.696663336265       -1.2063436648     -0.001377484826
H             1.238021589736     -2.142768045099      0.001261014205
C             -0.69694068372     -1.206903024974     -0.000507818264
H            -1.237799125947      -2.14373787832      -0.00169760104
C            -1.394117326826      0.000170803848      0.001981006868
H            -2.475865900014      0.000265443726      0.001461018677
C             -0.69676396638      1.206847404824      -9.5703779e-05
H            -1.237425243665      2.143795338383     -0.000181194041
C             4.590017175827      1.144662956323      4.401919142943
C             3.572435120157      1.257786458656      5.356631844073
C             2.977513762386      0.148297922582       5.95803093169
C             3.416815513443     -1.138319615065      5.591368265148
C             4.433568973348      -1.26935263181      4.638151633058
C             5.009649454839     -0.143075090686      4.053898183088
H             5.040916464738      2.019156023128      3.944880492094
H             2.972712181619     -2.020510837465      6.042275295681
H             4.775485126481     -2.260990656379       4.35246387053
C             1.996846252882      0.638544151455      6.864157200474
C             2.013641760309      2.013132371144      6.797839551061
H              1.43137250583      2.760736859469      7.319137298441
N             2.968186536901      2.376435879387      5.884889889098
H              3.20095475351      3.326186649076      5.630610953065
H             5.798412060721     -0.266406555016      3.315248993711
H             1.349487888713      0.045119447139      7.496045289574
