28
-0.080821402196207
C             0.697092438124      1.206228481101                   0
H             1.238751481843      2.142336379831      0.004928675883
C             1.394066202537                   0                   0
H             2.475325479251      0.000114333064      0.010977564436
C             0.696663336265       -1.2063436648     -0.001377484826
H             1.238021589736     -2.142768045099      0.001261014205
C             -0.69694068372     -1.206903024974     -0.000507818264
H            -1.237799125947      -2.14373787832      -0.00169760104
C            -1.394117326826      0.000170803848      0.001981006868
H            -2.475865900014      0.000265443726      0.001461018677
C             -0.69676396638      1.206847404824      -9.5703779e-05
H            -1.237425243665      2.143795338383     -0.000181194041
C             6.000381805217      2.396312344679      4.742345282888
C             5.091448908246      1.814976040859      5.634329362996
C             5.071617226703      0.446172506965      5.903700271235
C             6.002628166033     -0.386182060785      5.253149172481
C             6.918657563559      0.178911338833      4.358085604919
C             6.915266330242      1.549809829449      4.108390305481
H             6.000793653856       3.46315033805      4.545395676947
H             6.011307097569     -1.455211211645      5.442642241378
H             7.639035999091     -0.460396403881       3.85389254177
C             4.029772106355      0.219565140135      6.845147450108
C             3.445818560266      1.433845538532      7.125672428459
H             2.628575923359      1.698835597449      7.782632121435
N             4.094172063304      2.390043034234      6.389502380704
H             3.877545954018      3.376912656446      6.394681379699
H             7.635326377772      1.969208172722      3.409406556663
H             3.741078893698     -0.732642145673      7.269960117434
