28
-0.117278231855731
C             0.697092438124      1.206228481101                   0
H             1.238751481843      2.142336379831      0.004928675883
C             1.394066202537                   0                   0
H             2.475325479251      0.000114333064      0.010977564436
C             0.696663336265       -1.2063436648     -0.001377484826
H             1.238021589736     -2.142768045099      0.001261014205
C             -0.69694068372     -1.206903024974     -0.000507818264
H            -1.237799125947      -2.14373787832      -0.00169760104
C            -1.394117326826      0.000170803848      0.001981006868
H            -2.475865900014      0.000265443726      0.001461018677
C             -0.69676396638      1.206847404824      -9.5703779e-05
H            -1.237425243665      2.143795338383     -0.000181194041
C             8.000381805217      1.396312344679      3.742345282888
C             7.091448908246      0.814976040859      4.634329362996
C             7.071617226703     -0.553827493035      4.903700271235
C             8.002628166033     -1.386182060785      4.253149172481
C             8.918657563559     -0.821088661167      3.358085604919
C             8.915266330242      0.549809829449      3.108390305481
H             8.000793653856       2.46315033805      3.545395676947
H             8.011307097569     -2.455211211645      4.442642241378
H             9.639035999091     -1.460396403881       2.85389254177
C             6.029772106355     -0.780434859865      5.845147450108
C             5.445818560266      0.433845538532      6.125672428459
H             4.628575923359      0.698835597449      6.782632121435
N             6.094172063304      1.390043034234      5.389502380704
H             5.877545954018      2.376912656446      5.394681379699
H             9.635326377772      0.969208172722      2.409406556663
H             5.741078893698     -1.732642145673      6.269960117434
