28
-0.848511018237158
C             0.697092438124      1.206228481101                   0
H             1.238751481843      2.142336379831      0.004928675883
C             1.394066202537                   0                   0
H             2.475325479251      0.000114333064      0.010977564436
C             0.696663336265       -1.2063436648     -0.001377484826
H             1.238021589736     -2.142768045099      0.001261014205
C             -0.69694068372     -1.206903024974     -0.000507818264
H            -1.237799125947      -2.14373787832      -0.00169760104
C            -1.394117326826      0.000170803848      0.001981006868
H            -2.475865900014      0.000265443726      0.001461018677
C             -0.69676396638      1.206847404824      -9.5703779e-05
H            -1.237425243665      2.143795338383     -0.000181194041
C             2.902230351798      1.129158011573      5.108768116335
C             3.246675146718     -0.103993007593       5.67484483877
C             4.320410675459     -0.255853201729      6.552687416888
C             5.090195030244       0.87570147231      6.884090939028
C             4.759376335038      2.116537984961      6.326898927983
C             3.681112460743      2.238448740478      5.452709760995
H             2.063500266661      1.227989485927      4.427815250886
H             5.931778793638      0.788471113049      7.564483403725
H             5.351260472731      2.992500542045      6.580341014733
C             4.369461105293     -1.628841132195      6.920944313943
C             3.342380940662     -2.274822226914      6.271338545736
H             3.032731585426     -3.311054958019      6.277686843701
N             2.670972224019     -1.345246598773      5.521857564201
H             1.868232015934     -1.535439812035      4.938505145459
H             3.440556670936      3.211530908298      5.030567924451
H             5.082320826758     -2.091263121919      7.590649629311
