28
-0.0534838470902235
C             0.697092438124      1.206228481101                   0
H             1.238751481843      2.142336379831      0.004928675883
C             1.394066202537                   0                   0
H             2.475325479251      0.000114333064      0.010977564436
C             0.696663336265       -1.2063436648     -0.001377484826
H             1.238021589736     -2.142768045099      0.001261014205
C             -0.69694068372     -1.206903024974     -0.000507818264
H            -1.237799125947      -2.14373787832      -0.00169760104
C            -1.394117326826      0.000170803848      0.001981006868
H            -2.475865900014      0.000265443726      0.001461018677
C             -0.69676396638      1.206847404824      -9.5703779e-05
H            -1.237425243665      2.143795338383     -0.000181194041
C             5.812961803642      1.144662956323      8.211929434407
C             4.477365323313      1.257786458656      7.808033874326
C             3.659077756738      0.148297922582      7.593516409051
C             4.196267816111     -1.138319615065      7.790631552123
C             5.530154364764      -1.26935263181      8.194557561741
C             6.324172935432     -0.143075090686      8.401331168351
H             6.434218530244      2.019156023128      8.373900347728
H             3.583719207013     -2.020510837465      7.631480300124
H              5.94852530123     -2.260990656379      8.347821755054
C             2.384015634183      0.638544151455      7.197296567547
C             2.449846157007      2.013132371144      7.178683078942
H             1.707254437601      2.760736859469       6.93507198641
N              3.71775614494      2.376435879387      7.548868273538
H             4.054352271496      3.326186649076      7.623311994299
H             7.358243200858     -0.266406555016      8.715095027913
H             1.513105314589      0.045119447139      6.952611823374
