28
-2.72907435434275
C             0.697092438124      1.206228481101                   0
H             1.238751481843      2.142336379831      0.004928675883
C             1.394066202537                   0                   0
H             2.475325479251      0.000114333064      0.010977564436
C             0.696663336265       -1.2063436648     -0.001377484826
H             1.238021589736     -2.142768045099      0.001261014205
C             -0.69694068372     -1.206903024974     -0.000507818264
H            -1.237799125947      -2.14373787832      -0.00169760104
C            -1.394117326826      0.000170803848      0.001981006868
H            -2.475865900014      0.000265443726      0.001461018677
C             -0.69676396638      1.206847404824      -9.5703779e-05
H            -1.237425243665      2.143795338383     -0.000181194041
C            -0.222944627815      1.273820967896      5.586302053215
C             0.095069796844      0.153793451063      6.363574010605
C             0.318436005648     -1.107555279147      5.810687029604
C             0.220547697332     -1.262618142755       4.41455465224
C            -0.096585391416     -0.152814646849       3.62250541015
C            -0.314523480593      1.095373649792      4.202376844186
H            -0.393302065506      2.247145509055      6.034130482416
H             0.388992974606     -2.232039724416      3.955583783911
H            -0.173040174749     -0.268490114334      2.544245711594
C             0.612830618699      -1.99029698074      6.886425773062
C             0.563795603302      -1.26168985577      8.053002010651
H             0.724118068229      -1.55031809855       9.08290090948
N             0.250430391961      0.031189280614      7.726064649793
H             0.146602482014      0.790746837041      8.384211615212
H            -0.559831140137      1.945124353282       3.56936213852
H             0.836382574124      -3.04614367478      6.810791320527
