28
-0.488377202516394
C             0.697092438124      1.206228481101                   0
H             1.238751481843      2.142336379831      0.004928675883
C             1.394066202537                   0                   0
H             2.475325479251      0.000114333064      0.010977564436
C             0.696663336265       -1.2063436648     -0.001377484826
H             1.238021589736     -2.142768045099      0.001261014205
C             -0.69694068372     -1.206903024974     -0.000507818264
H            -1.237799125947      -2.14373787832      -0.00169760104
C            -1.394117326826      0.000170803848      0.001981006868
H            -2.475865900014      0.000265443726      0.001461018677
C             -0.69676396638      1.206847404824      -9.5703779e-05
H            -1.237425243665      2.143795338383     -0.000181194041
C             5.598080857057      1.144662956323      7.590017175827
C             4.643368155927      1.257786458656      6.572435120157
C              4.04196906831      0.148297922582      5.977513762386
C             4.408631734852     -1.138319615065      6.416815513443
C             5.361848366942      -1.26935263181      7.433568973348
C             5.946101816912     -0.143075090686      8.009649454839
H             6.055119507906      2.019156023128      8.040916464738
H             3.957724704319     -2.020510837465      5.972712181619
H              5.64753612947     -2.260990656379      7.775485126481
C             3.135842799526      0.638544151455      4.996846252882
C             3.202160448939      2.013132371144      5.013641760309
H             2.680862701559      2.760736859469       4.43137250583
N             4.115110110902      2.376435879387      5.968186536901
H             4.369389046935      3.326186649076       6.20095475351
H             6.684751006289     -0.266406555016      8.798412060721
H             2.503954710426      0.045119447139      4.349487888713
