28
-2.7383648133389
C             0.697092438124      1.206228481101                   0
H             1.238751481843      2.142336379831      0.004928675883
C             1.394066202537                   0                   0
H             2.475325479251      0.000114333064      0.010977564436
C             0.696663336265       -1.2063436648     -0.001377484826
H             1.238021589736     -2.142768045099      0.001261014205
C             -0.69694068372     -1.206903024974     -0.000507818264
H            -1.237799125947      -2.14373787832      -0.00169760104
C            -1.394117326826      0.000170803848      0.001981006868
H            -2.475865900014      0.000265443726      0.001461018677
C             -0.69676396638      1.206847404824      -9.5703779e-05
H            -1.237425243665      2.143795338383     -0.000181194041
C             2.897220487146      1.810010291464      3.379255766837
C              2.95825987269      0.451402030254      3.711226088528
C              4.03078823454     -0.364514522639      3.349922631662
C             5.096087552938      0.199263286975      2.621840101103
C             5.050998929801      1.556405928683      2.281678281494
C             3.966644922886      2.347432985263      2.656077130377
H             2.054708557014      2.429019855634      3.668968431475
H              5.94431020117     -0.410794995556       2.32662237917
H             5.871555258769      1.995357884525      1.719647484603
C             3.753419852751     -1.666860632927      3.849998959738
C             2.538474027059     -1.619156472119      4.494827500574
H              1.97119078065     -2.384065312031       5.00747307216
N             2.067161353967     -0.336021615559      4.405097021011
H             1.192739105178     -0.007298958766       4.79005479822
H              3.95079927431      3.399846034202      2.381968733304
H             4.379116699635       -2.5434334662      3.746888280044
