28
-2.20379453977201
C             0.697092438124      1.206228481101                   0
H             1.238751481843      2.142336379831      0.004928675883
C             1.394066202537                   0                   0
H             2.475325479251      0.000114333064      0.010977564436
C             0.696663336265       -1.2063436648     -0.001377484826
H             1.238021589736     -2.142768045099      0.001261014205
C             -0.69694068372     -1.206903024974     -0.000507818264
H            -1.237799125947      -2.14373787832      -0.00169760104
C            -1.394117326826      0.000170803848      0.001981006868
H            -2.475865900014      0.000265443726      0.001461018677
C             -0.69676396638      1.206847404824      -9.5703779e-05
H            -1.237425243665      2.143795338383     -0.000181194041
C             2.494919538986      0.129158011573      3.679285723983
C             2.510179120371     -1.103993007593      4.341744943562
C             3.001140076147     -1.255853201729      5.638846681107
C             3.502091121757      -0.12429852769      6.310742727576
C             3.494189733184      1.116537984961      5.662790943622
C             2.997480409556      1.238448740478       4.36658898015
H             2.109034411064      0.227989485927      2.670198201155
H              3.89072780792     -0.211528886951      7.320771768244
H             3.880055389148      1.992500542045      6.178220297982
C             2.859490545922     -2.628841132195      5.982291723992
C             2.294815915732     -3.274822226914      4.906176543964
H              2.02347755885     -4.311054958019      4.756849653655
N             2.088099401565     -2.345246598773       3.92140261598
H             1.684582198095     -2.535439812035      3.014834497948
H             3.000223902827      2.211530908298      3.880725530799
H             3.141992516362     -3.091263121919      6.918703400882
