28
-0.349297300013894
C             0.697092438124      1.206228481101                   0
H             1.238751481843      2.142336379831      0.004928675883
C             1.394066202537                   0                   0
H             2.475325479251      0.000114333064      0.010977564436
C             0.696663336265       -1.2063436648     -0.001377484826
H             1.238021589736     -2.142768045099      0.001261014205
C             -0.69694068372     -1.206903024974     -0.000507818264
H            -1.237799125947      -2.14373787832      -0.00169760104
C            -1.394117326826      0.000170803848      0.001981006868
H            -2.475865900014      0.000265443726      0.001461018677
C             -0.69676396638      1.206847404824      -9.5703779e-05
H            -1.237425243665      2.143795338383     -0.000181194041
C             4.765407189487      0.189989708536      4.879834885039
C             4.546560370128      1.548597969746      5.136809924154
C              3.79837529092      2.364514522639      4.287647771108
C             3.239840283832      1.800736713025      3.124460144394
C             3.448969086695      0.443594071317      2.852415678783
C             4.200847778937     -0.347432985263      3.718831596521
H             5.350187591653     -0.429019855634       5.55198937748
H             2.652866783365      2.410794995556      2.444682773436
H             3.019361859018      0.004642115475      1.955404566482
C             3.788545191717      3.666860632927      4.859410765948
C             4.518304870571      3.619156472119      6.025321576243
H             4.753263787309      4.384065312031      6.752927287579
N             4.971338858375      2.336021615559      6.183269037994
H             5.536131850856      2.007298958766      6.953863376836
H              4.35162471168     -1.399846034202      3.489369585553
H             3.298231167096        4.5434334662      4.457265874489
