28
-0.167742693840357
C             0.697092438124      1.206228481101                   0
H             1.238751481843      2.142336379831      0.004928675883
C             1.394066202537                   0                   0
H             2.475325479251      0.000114333064      0.010977564436
C             0.696663336265       -1.2063436648     -0.001377484826
H             1.238021589736     -2.142768045099      0.001261014205
C             -0.69694068372     -1.206903024974     -0.000507818264
H            -1.237799125947      -2.14373787832      -0.00169760104
C            -1.394117326826      0.000170803848      0.001981006868
H            -2.475865900014      0.000265443726      0.001461018677
C             -0.69676396638      1.206847404824      -9.5703779e-05
H            -1.237425243665      2.143795338383     -0.000181194041
C             5.102779512854      0.189989708536      7.379255766837
C              5.04174012731      1.548597969746      7.711226088528
C              3.96921176546      2.364514522639      7.349922631662
C             2.903912447062      1.800736713025      6.621840101103
C             2.949001070199      0.443594071317      6.281678281494
C             4.033355077114     -0.347432985263      6.656077130377
H             5.945291442986     -0.429019855634      7.668968431475
H              2.05568979883      2.410794995556       6.32662237917
H             2.128444741231      0.004642115475      5.719647484603
C             4.246580147249      3.666860632927      7.849998959738
C             5.461525972941      3.619156472119      8.494827500574
H              6.02880921935      4.384065312031       9.00747307216
N             5.932838646033      2.336021615559      8.405097021011
H             6.807260894822      2.007298958766       8.79005479822
H              4.04920072569     -1.399846034202      6.381968733304
H             3.620883300365        4.5434334662      7.746888280044
