28
-0.257339432913303
C             0.697092438124      1.206228481101                   0
H             1.238751481843      2.142336379831      0.004928675883
C             1.394066202537                   0                   0
H             2.475325479251      0.000114333064      0.010977564436
C             0.696663336265       -1.2063436648     -0.001377484826
H             1.238021589736     -2.142768045099      0.001261014205
C             -0.69694068372     -1.206903024974     -0.000507818264
H            -1.237799125947      -2.14373787832      -0.00169760104
C            -1.394117326826      0.000170803848      0.001981006868
H            -2.475865900014      0.000265443726      0.001461018677
C             -0.69676396638      1.206847404824      -9.5703779e-05
H            -1.237425243665      2.143795338383     -0.000181194041
C             2.603719841532      1.273820967896      7.513773262067
C             1.771575368453      0.153793451063      7.400545853897
C             2.138706435021     -1.107555279147      7.870430155569
C             3.396736695022     -1.262618142755      8.483722582516
C             4.241238004094     -0.152814646849      8.605101892324
C             3.848023655878      1.095373649792      8.126426253627
H             2.301067764152      2.247145509055      7.142325178703
H             3.709994487954     -2.232039724416      8.859085905947
H             5.213265686586     -0.268490114334      9.078019956995
C             1.059892048825      -1.99029698074      7.587513997479
C              0.07412489932      -1.26168985577      6.961760309676
H            -0.897954942859      -1.55031809855      6.585654187686
N              0.51394356494      0.031189280614      6.853846756421
H            -0.004114471563      0.790746837041      6.434855666076
H             4.518884301726      1.945124353282      8.230490941552
H             1.013617428409      -3.04614367478       7.81893289621
