28
-1.13008007961136
C             0.697092438124      1.206228481101                   0
H             1.238751481843      2.142336379831      0.004928675883
C             1.394066202537                   0                   0
H             2.475325479251      0.000114333064      0.010977564436
C             0.696663336265       -1.2063436648     -0.001377484826
H             1.238021589736     -2.142768045099      0.001261014205
C             -0.69694068372     -1.206903024974     -0.000507818264
H            -1.237799125947      -2.14373787832      -0.00169760104
C            -1.394117326826      0.000170803848      0.001981006868
H            -2.475865900014      0.000265443726      0.001461018677
C             -0.69676396638      1.206847404824      -9.5703779e-05
H            -1.237425243665      2.143795338383     -0.000181194041
C             4.234592810513      1.810010291464      3.879834885039
C             4.453439629872      0.451402030254      4.136809924154
C              5.20162470908     -0.364514522639      3.287647771108
C             5.760159716168      0.199263286975      2.124460144394
C             5.551030913305      1.556405928683      1.852415678783
C             4.799152221063      2.347432985263      2.718831596521
H             3.649812408347      2.429019855634       4.55198937748
H             6.347133216635     -0.410794995556      1.444682773436
H             5.980638140982      1.995357884525      0.955404566482
C             5.211454808283     -1.666860632927      3.859410765948
C             4.481695129429     -1.619156472119      5.025321576243
H             4.246736212691     -2.384065312031      5.752927287579
N             4.028661141625     -0.336021615559      5.183269037994
H             3.463868149144     -0.007298958766      5.953863376836
H              4.64837528832      3.399846034202      2.489369585553
H             5.701768832904       -2.5434334662      3.457265874489
