28
-0.26924547492788
C             0.697092438124      1.206228481101                   0
H             1.238751481843      2.142336379831      0.004928675883
C             1.394066202537                   0                   0
H             2.475325479251      0.000114333064      0.010977564436
C             0.696663336265       -1.2063436648     -0.001377484826
H             1.238021589736     -2.142768045099      0.001261014205
C             -0.69694068372     -1.206903024974     -0.000507818264
H            -1.237799125947      -2.14373787832      -0.00169760104
C            -1.394117326826      0.000170803848      0.001981006868
H            -2.475865900014      0.000265443726      0.001461018677
C             -0.69676396638      1.206847404824      -9.5703779e-05
H            -1.237425243665      2.143795338383     -0.000181194041
C             6.991689004164      1.586302053215      3.170013804727
C             6.180723933978      2.363574010605      4.005436133668
C             5.200046994987      1.810687029604      4.829551309944
C             5.016814461761       0.41455465224      4.822308980013
C              5.81936593805      -0.37749458985      3.992761920824
C              6.79135966706      0.202376844186      3.179927850824
H             7.749434064089      2.034130482416      2.535817665383
H             4.261493383702     -0.044416216089      5.452897660111
H             5.680960652947     -1.455754288406      3.984387869959
C             4.582767562954      2.886425773062       5.52587537438
C             5.189242334857      4.053002010651      5.119106242886
H             5.019444176824       5.08290090948      5.402263691701
N             6.152225905318      3.726064649793      4.201284441011
H             6.758108089847      4.384211615212      3.731588055161
H             7.404611533393      -0.43063786148      2.542609834171
H             3.780153481125      2.810791320527      6.247400393864
