28
-0.0409912097164616
C             0.697092438124      1.206228481101                   0
H             1.238751481843      2.142336379831      0.004928675883
C             1.394066202537                   0                   0
H             2.475325479251      0.000114333064      0.010977564436
C             0.696663336265       -1.2063436648     -0.001377484826
H             1.238021589736     -2.142768045099      0.001261014205
C             -0.69694068372     -1.206903024974     -0.000507818264
H            -1.237799125947      -2.14373787832      -0.00169760104
C            -1.394117326826      0.000170803848      0.001981006868
H            -2.475865900014      0.000265443726      0.001461018677
C             -0.69676396638      1.206847404824      -9.5703779e-05
H            -1.237425243665      2.143795338383     -0.000181194041
C             2.211929434407      2.144662956323      7.187038196358
C             1.808033874326      2.257786458656      8.522634676687
C             1.593516409051      1.148297922582      9.340922243262
C             1.790631552123     -0.138319615065      8.803732183889
C             2.194557561741      -0.26935263181      7.469845635236
C             2.401331168351      0.856924909314      6.675827064568
H             2.373900347728      3.019156023128      6.565781469756
H             1.631480300124     -1.020510837465      9.416280792987
H             2.347821755054     -1.260990656379       7.05147469877
C             1.197296567547      1.638544151455     10.615984365817
C             1.178683078942      3.013132371144     10.550153842993
H              0.93507198641      3.760736859469     11.292745562399
N             1.548868273538      3.376435879387       9.28224385506
H             1.623311994299      4.326186649076      8.945647728504
H             2.715095027913      0.733593444984      5.641756799142
H             0.952611823374      1.045119447139     11.486894685411
