28
-0.199893431207051
C             0.697092438124      1.206228481101                   0
H             1.238751481843      2.142336379831      0.004928675883
C             1.394066202537                   0                   0
H             2.475325479251      0.000114333064      0.010977564436
C             0.696663336265       -1.2063436648     -0.001377484826
H             1.238021589736     -2.142768045099      0.001261014205
C             -0.69694068372     -1.206903024974     -0.000507818264
H            -1.237799125947      -2.14373787832      -0.00169760104
C            -1.394117326826      0.000170803848      0.001981006868
H            -2.475865900014      0.000265443726      0.001461018677
C             -0.69676396638      1.206847404824      -9.5703779e-05
H            -1.237425243665      2.143795338383     -0.000181194041
C             4.008310995836      1.413697946785      6.170013804727
C             4.819276066022      0.636425989395      7.005436133668
C             5.799953005013      1.189312970396      7.829551309944
C             5.983185538239       2.58544534776      7.822308980013
C              5.18063406195       3.37749458985      6.992761920824
C              4.20864033294      2.797623155814      6.179927850824
H             3.250565935911      0.965869517584      5.535817665383
H             6.738506616298      3.044416216089      8.452897660111
H             5.319039347053      4.455754288406      6.984387869959
C             6.417232437046      0.113574226938       8.52587537438
C             5.810757665143     -1.053002010651      8.119106242886
H             5.980555823176      -2.08290090948      8.402263691701
N             4.847774094682     -0.726064649793      7.201284441011
H             4.241891910153     -1.384211615212      6.731588055161
H             3.595388466607       3.43063786148      5.542609834171
H             7.219846518875      0.189208679473      9.247400393864
