28
-0.176357200170497
C             0.697092438124      1.206228481101                   0
H             1.238751481843      2.142336379831      0.004928675883
C             1.394066202537                   0                   0
H             2.475325479251      0.000114333064      0.010977564436
C             0.696663336265       -1.2063436648     -0.001377484826
H             1.238021589736     -2.142768045099      0.001261014205
C             -0.69694068372     -1.206903024974     -0.000507818264
H            -1.237799125947      -2.14373787832      -0.00169760104
C            -1.394117326826      0.000170803848      0.001981006868
H            -2.475865900014      0.000265443726      0.001461018677
C             -0.69676396638      1.206847404824      -9.5703779e-05
H            -1.237425243665      2.143795338383     -0.000181194041
C             6.513773262067      1.273820967896      4.396280158468
C             6.400545853897      0.153793451063      5.228424631547
C             6.870430155569     -1.107555279147      4.861293564979
C             7.483722582516     -1.262618142755      3.603263304978
C             7.605101892324     -0.152814646849      2.758761995906
C             7.126426253627      1.095373649792      3.151976344122
H             6.142325178703      2.247145509055      4.698932235848
H             7.859085905947     -2.232039724416      3.290005512046
H             8.078019956995     -0.268490114334      1.786734313414
C             6.587513997479      -1.99029698074      5.940107951175
C             5.961760309676      -1.26168985577       6.92587510068
H             5.585654187686      -1.55031809855      7.897954942859
N             5.853846756421      0.031189280614       6.48605643506
H             5.434855666076      0.790746837041      7.004114471563
H             7.230490941552      1.945124353282      2.481115698274
H              6.81893289621      -3.04614367478      5.986382571591
