28
-1.4403015784274
C             0.697092438124      1.206228481101                   0
H             1.238751481843      2.142336379831      0.004928675883
C             1.394066202537                   0                   0
H             2.475325479251      0.000114333064      0.010977564436
C             0.696663336265       -1.2063436648     -0.001377484826
H             1.238021589736     -2.142768045099      0.001261014205
C             -0.69694068372     -1.206903024974     -0.000507818264
H            -1.237799125947      -2.14373787832      -0.00169760104
C            -1.394117326826      0.000170803848      0.001981006868
H            -2.475865900014      0.000265443726      0.001461018677
C             -0.69676396638      1.206847404824      -9.5703779e-05
H            -1.237425243665      2.143795338383     -0.000181194041
C             1.380775213717      2.273820967896      4.100075315282
C             0.866645165297      1.153793451063      4.764119864502
C             1.457142440669     -0.107555279147      4.681117185173
C             2.617284392354     -0.262618142755      3.898277234756
C             3.144652612678      0.847185353151      3.227607302474
C             2.533500175285      2.095373649792      3.328803097813
H             0.907765698646      3.247145509055      4.176455661119
H              3.09898746256     -1.232039724416      3.814669689858
H             4.040225511837      0.731509885666      2.622265668589
C             0.672722667524      -0.99029698074      5.473939770541
C            -0.362079497378      -0.26168985577      6.014762320327
H             -1.17383687463      -0.55031809855      6.668555097166
N            -0.235626043099      1.031189280614      5.579911406215
H            -0.857511989549      1.790746837041      5.819067281288
H             2.959053161589      2.945124353282      2.799853080072
H             0.850000002533      -2.04614367478      5.629724216738
