28
-0.158828489285113
C             0.697092438124      1.206228481101                   0
H             1.238751481843      2.142336379831      0.004928675883
C             1.394066202537                   0                   0
H             2.475325479251      0.000114333064      0.010977564436
C             0.696663336265       -1.2063436648     -0.001377484826
H             1.238021589736     -2.142768045099      0.001261014205
C             -0.69694068372     -1.206903024974     -0.000507818264
H            -1.237799125947      -2.14373787832      -0.00169760104
C            -1.394117326826      0.000170803848      0.001981006868
H            -2.475865900014      0.000265443726      0.001461018677
C             -0.69676396638      1.206847404824      -9.5703779e-05
H            -1.237425243665      2.143795338383     -0.000181194041
C             7.777055372185     -1.396312344679      3.129158011573
C             8.095069796844     -0.814976040859      1.896006992407
C             8.318436005648      0.553827493035      1.744146798271
C             8.220547697332      1.386182060785       2.87570147231
C             7.903414608584      0.821088661167      4.116537984961
C             7.685476519407     -0.549809829449      4.238448740478
H             7.606697934494      -2.46315033805      3.227989485927
H             8.388992974606      2.455211211645      2.788471113049
H             7.826959825251      1.460396403881      4.992500542045
C             8.612830618699      0.780434859865      0.371158867805
C             8.563795603302     -0.433845538532     -0.274822226914
H             8.724118068229     -0.698835597449     -1.311054958019
N             8.250430391961     -1.390043034234      0.654753401227
H             8.146602482014     -2.376912656446      0.464560187965
H             7.440168859863     -0.969208172722      5.211530908298
H             8.836382574124      1.732642145673     -0.091263121919
