28
-0.091139469935527
C             0.697092438124      1.206228481101                   0
H             1.238751481843      2.142336379831      0.004928675883
C             1.394066202537                   0                   0
H             2.475325479251      0.000114333064      0.010977564436
C             0.696663336265       -1.2063436648     -0.001377484826
H             1.238021589736     -2.142768045099      0.001261014205
C             -0.69694068372     -1.206903024974     -0.000507818264
H            -1.237799125947      -2.14373787832      -0.00169760104
C            -1.394117326826      0.000170803848      0.001981006868
H            -2.475865900014      0.000265443726      0.001461018677
C             -0.69676396638      1.206847404824      -9.5703779e-05
H            -1.237425243665      2.143795338383     -0.000181194041
C             5.991689004164      2.586302053215      4.170013804727
C             5.180723933978      3.363574010605      5.005436133668
C             4.200046994987      2.810687029604      5.829551309944
C             4.016814461761       1.41455465224      5.822308980013
C              4.81936593805       0.62250541015      4.992761920824
C              5.79135966706      1.202376844186      4.179927850824
H             6.749434064089      3.034130482416      3.535817665383
H             3.261493383702      0.955583783911      6.452897660111
H             4.680960652947     -0.455754288406      4.984387869959
C             3.582767562954      3.886425773062       6.52587537438
C             4.189242334857      5.053002010651      6.119106242886
H             4.019444176824       6.08290090948      6.402263691701
N             5.152225905318      4.726064649793      5.201284441011
H             5.758108089847      5.384211615212      4.731588055161
H             6.404611533393       0.56936213852      3.542609834171
H             2.780153481125      3.810791320527      7.247400393864
