28
-0.251149307576748
C             0.697092438124      1.206228481101                   0
H             1.238751481843      2.142336379831      0.004928675883
C             1.394066202537                   0                   0
H             2.475325479251      0.000114333064      0.010977564436
C             0.696663336265       -1.2063436648     -0.001377484826
H             1.238021589736     -2.142768045099      0.001261014205
C             -0.69694068372     -1.206903024974     -0.000507818264
H            -1.237799125947      -2.14373787832      -0.00169760104
C            -1.394117326826      0.000170803848      0.001981006868
H            -2.475865900014      0.000265443726      0.001461018677
C             -0.69676396638      1.206847404824      -9.5703779e-05
H            -1.237425243665      2.143795338383     -0.000181194041
C             4.879834885039     -0.810010291464      4.234592810513
C             5.136809924154      0.548597969746      4.453439629872
C             4.287647771108      1.364514522639       5.20162470908
C             3.124460144394      0.800736713025      5.760159716168
C             2.852415678783     -0.556405928683      5.551030913305
C             3.718831596521     -1.347432985263      4.799152221063
H              5.55198937748     -1.429019855634      3.649812408347
H             2.444682773436      1.410794995556      6.347133216635
H             1.955404566482     -0.995357884525      5.980638140982
C             4.859410765948      2.666860632927      5.211454808283
C             6.025321576243      2.619156472119      4.481695129429
H             6.752927287579      3.384065312031      4.246736212691
N             6.183269037994      1.336021615559      4.028661141625
H             6.953863376836      1.007298958766      3.463868149144
H             3.489369585553     -2.399846034202       4.64837528832
H             4.457265874489        3.5434334662      5.701768832904
