28
-0.416539972209404
C             0.697092438124      1.206228481101                   0
H             1.238751481843      2.142336379831      0.004928675883
C             1.394066202537                   0                   0
H             2.475325479251      0.000114333064      0.010977564436
C             0.696663336265       -1.2063436648     -0.001377484826
H             1.238021589736     -2.142768045099      0.001261014205
C             -0.69694068372     -1.206903024974     -0.000507818264
H            -1.237799125947      -2.14373787832      -0.00169760104
C            -1.394117326826      0.000170803848      0.001981006868
H            -2.475865900014      0.000265443726      0.001461018677
C             -0.69676396638      1.206847404824      -9.5703779e-05
H            -1.237425243665      2.143795338383     -0.000181194041
C             3.999618194783      0.603687655321      5.742345282888
C             4.908551091754      1.185023959141      6.634329362996
C             4.928382773297      2.553827493035      6.903700271235
C             3.997371833967      3.386182060785      6.253149172481
C             3.081342436441      2.821088661167      5.358085604919
C             3.084733669758      1.450190170551      5.108390305481
H             3.999206346144      -0.46315033805      5.545395676947
H             3.988692902431      4.455211211645      6.442642241378
H             2.360964000909      3.460396403881       4.85389254177
C             5.970227893645      2.780434859865      7.845147450108
C             6.554181439734      1.566154461468      8.125672428459
H             7.371424076641      1.301164402551      8.782632121435
N             5.905827936696      0.609956965766      7.389502380704
H             6.122454045982     -0.376912656446      7.394681379699
H             2.364673622228      1.030791827278      4.409406556663
H             6.258921106302      3.732642145673      8.269960117434
