28
-0.240126798235935
C             0.697092438124      1.206228481101                   0
H             1.238751481843      2.142336379831      0.004928675883
C             1.394066202537                   0                   0
H             2.475325479251      0.000114333064      0.010977564436
C             0.696663336265       -1.2063436648     -0.001377484826
H             1.238021589736     -2.142768045099      0.001261014205
C             -0.69694068372     -1.206903024974     -0.000507818264
H            -1.237799125947      -2.14373787832      -0.00169760104
C            -1.394117326826      0.000170803848      0.001981006868
H            -2.475865900014      0.000265443726      0.001461018677
C             -0.69676396638      1.206847404824      -9.5703779e-05
H            -1.237425243665      2.143795338383     -0.000181194041
C             6.777055372185      3.413697946785      4.273820967896
C             7.095069796844      2.636425989395      3.153793451063
C             7.318436005648      3.189312970396      1.892444720853
C             7.220547697332       4.58544534776      1.737381857245
C             6.903414608584       5.37749458985      2.847185353151
C             6.685476519407      4.797623155814      4.095373649792
H             6.606697934494      2.965869517584      5.247145509055
H             7.388992974606      5.044416216089      0.767960275584
H             6.826959825251      6.455754288406      2.731509885666
C             7.612830618699      2.113574226938       1.00970301926
C             7.563795603302      0.946997989349       1.73831014423
H             7.724118068229      -0.08290090948       1.44968190145
N             7.250430391961      1.273935350207      3.031189280614
H             7.146602482014      0.615788384788      3.790746837041
H             6.440168859863       5.43063786148      4.945124353282
H             7.836382574124      2.189208679473      -0.04614367478
