28
-0.0232825292126933
C             0.697092438124      1.206228481101                   0
H             1.238751481843      2.142336379831      0.004928675883
C             1.394066202537                   0                   0
H             2.475325479251      0.000114333064      0.010977564436
C             0.696663336265       -1.2063436648     -0.001377484826
H             1.238021589736     -2.142768045099      0.001261014205
C             -0.69694068372     -1.206903024974     -0.000507818264
H            -1.237799125947      -2.14373787832      -0.00169760104
C            -1.394117326826      0.000170803848      0.001981006868
H            -2.475865900014      0.000265443726      0.001461018677
C             -0.69676396638      1.206847404824      -9.5703779e-05
H            -1.237425243665      2.143795338383     -0.000181194041
C             7.777055372185      1.413697946785      6.273820967896
C             8.095069796844      0.636425989395      5.153793451063
C             8.318436005648      1.189312970396      3.892444720853
C             8.220547697332       2.58544534776      3.737381857245
C             7.903414608584       3.37749458985      4.847185353151
C             7.685476519407      2.797623155814      6.095373649792
H             7.606697934494      0.965869517584      7.247145509055
H             8.388992974606      3.044416216089      2.767960275584
H             7.826959825251      4.455754288406      4.731509885666
C             8.612830618699      0.113574226938       3.00970301926
C             8.563795603302     -1.053002010651       3.73831014423
H             8.724118068229      -2.08290090948       3.44968190145
N             8.250430391961     -0.726064649793      5.031189280614
H             8.146602482014     -1.384211615212      5.790746837041
H             7.440168859863       3.43063786148      6.945124353282
H             8.836382574124      0.189208679473       1.95385632522
