28
-0.866536088771464
C             0.697092438124      1.206228481101                   0
H             1.238751481843      2.142336379831      0.004928675883
C             1.394066202537                   0                   0
H             2.475325479251      0.000114333064      0.010977564436
C             0.696663336265       -1.2063436648     -0.001377484826
H             1.238021589736     -2.142768045099      0.001261014205
C             -0.69694068372     -1.206903024974     -0.000507818264
H            -1.237799125947      -2.14373787832      -0.00169760104
C            -1.394117326826      0.000170803848      0.001981006868
H            -2.475865900014      0.000265443726      0.001461018677
C             -0.69676396638      1.206847404824      -9.5703779e-05
H            -1.237425243665      2.143795338383     -0.000181194041
C             6.222944627815      0.810010291464      1.855337043677
C             5.904930203156     -0.548597969746      1.742213541344
C             5.681563994352     -1.364514522639      2.851702077418
C             5.779452302668     -0.800736713025      4.138319615065
C             6.096585391416      0.556405928683       4.26935263181
C             6.314523480593      1.347432985263      3.143075090686
H             6.393302065506      1.429019855634      0.980843976872
H             5.611007025394     -1.410794995556      5.020510837465
H             6.173040174749      0.995357884525      5.260990656379
C             5.387169381301     -2.666860632927      2.361455848545
C             5.436204396698     -2.619156472119      0.986867628856
H             5.275881931771     -3.384065312031      0.239263140531
N             5.749569608039     -1.336021615559      0.623564120613
H             5.853397517986     -1.007298958766     -0.326186649076
H             6.559831140137      2.399846034202      3.266406555016
H             5.163617425876       -3.5434334662      2.954880552861
