28
-1.6017032310789
C             0.697092438124      1.206228481101                   0
H             1.238751481843      2.142336379831      0.004928675883
C             1.394066202537                   0                   0
H             2.475325479251      0.000114333064      0.010977564436
C             0.696663336265       -1.2063436648     -0.001377484826
H             1.238021589736     -2.142768045099      0.001261014205
C             -0.69694068372     -1.206903024974     -0.000507818264
H            -1.237799125947      -2.14373787832      -0.00169760104
C            -1.394117326826      0.000170803848      0.001981006868
H            -2.475865900014      0.000265443726      0.001461018677
C             -0.69676396638      1.206847404824      -9.5703779e-05
H            -1.237425243665      2.143795338383     -0.000181194041
C             3.222944627815      1.810010291464      4.855337043677
C             2.904930203156      0.451402030254      4.742213541344
C             2.681563994352     -0.364514522639      5.851702077418
C             2.779452302668      0.199263286975      7.138319615065
C             3.096585391416      1.556405928683       7.26935263181
C             3.314523480593      2.347432985263      6.143075090686
H             3.393302065506      2.429019855634      3.980843976872
H             2.611007025394     -0.410794995556      8.020510837465
H             3.173040174749      1.995357884525      8.260990656379
C             2.387169381301     -1.666860632927      5.361455848545
C             2.436204396698     -1.619156472119      3.986867628856
H             2.275881931771     -2.384065312031      3.239263140531
N             2.749569608039     -0.336021615559      3.623564120613
H             2.853397517986     -0.007298958766      2.673813350924
H             3.559831140137      3.399846034202      6.266406555016
H             2.163617425876       -2.5434334662      5.954880552861
