28
-0.0290741234890658
C             0.697092438124      1.206228481101                   0
H             1.238751481843      2.142336379831      0.004928675883
C             1.394066202537                   0                   0
H             2.475325479251      0.000114333064      0.010977564436
C             0.696663336265       -1.2063436648     -0.001377484826
H             1.238021589736     -2.142768045099      0.001261014205
C             -0.69694068372     -1.206903024974     -0.000507818264
H            -1.237799125947      -2.14373787832      -0.00169760104
C            -1.394117326826      0.000170803848      0.001981006868
H            -2.475865900014      0.000265443726      0.001461018677
C             -0.69676396638      1.206847404824      -9.5703779e-05
H            -1.237425243665      2.143795338383     -0.000181194041
C             6.222944627815      1.726179032104      5.586302053215
C             5.904930203156      2.846206548937      6.363574010605
C             5.681563994352      4.107555279147      5.810687029604
C             5.779452302668      4.262618142755       4.41455465224
C             6.096585391416      3.152814646849       3.62250541015
C             6.314523480593      1.904626350208      4.202376844186
H             6.393302065506      0.752854490945      6.034130482416
H             5.611007025394      5.232039724416      3.955583783911
H             6.173040174749      3.268490114334      2.544245711594
C             5.387169381301       4.99029698074      6.886425773062
C             5.436204396698       4.26168985577      8.053002010651
H             5.275881931771       4.55031809855       9.08290090948
N             5.749569608039      2.968810719386      7.726064649793
H             5.853397517986      2.209253162959      8.384211615212
H             6.559831140137      1.054875646718       3.56936213852
H             5.163617425876       6.04614367478      6.810791320527
