28
-0.380218245249873
C             0.697092438124      1.206228481101                   0
H             1.238751481843      2.142336379831      0.004928675883
C             1.394066202537                   0                   0
H             2.475325479251      0.000114333064      0.010977564436
C             0.696663336265       -1.2063436648     -0.001377484826
H             1.238021589736     -2.142768045099      0.001261014205
C             -0.69694068372     -1.206903024974     -0.000507818264
H            -1.237799125947      -2.14373787832      -0.00169760104
C            -1.394117326826      0.000170803848      0.001981006868
H            -2.475865900014      0.000265443726      0.001461018677
C             -0.69676396638      1.206847404824      -9.5703779e-05
H            -1.237425243665      2.143795338383     -0.000181194041
C             7.129158011573      5.396312344679      2.777055372185
C             5.896006992407      4.814976040859      3.095069796844
C             5.744146798271      3.446172506965      3.318436005648
C              6.87570147231      2.613817939215      3.220547697332
C             8.116537984961      3.178911338833      2.903414608584
C             8.238448740478      4.549809829449      2.685476519407
H             7.227989485927       6.46315033805      2.606697934494
H             6.788471113049      1.544788788355      3.388992974606
H             8.992500542045      2.539603596119      2.826959825251
C             4.371158867805      3.219565140135      3.612830618699
C             3.725177773086      4.433845538532      3.563795603302
H             2.688945041981      4.698835597449      3.724118068229
N             4.654753401227      5.390043034234      3.250430391961
H             4.464560187965      6.376912656446      3.146602482014
H             9.211530908298      4.969208172722      2.440168859863
H             3.908736878081      2.267357854327      3.836382574124
