28
-0.145497311570843
C             0.697092438124      1.206228481101                   0
H             1.238751481843      2.142336379831      0.004928675883
C             1.394066202537                   0                   0
H             2.475325479251      0.000114333064      0.010977564436
C             0.696663336265       -1.2063436648     -0.001377484826
H             1.238021589736     -2.142768045099      0.001261014205
C             -0.69694068372     -1.206903024974     -0.000507818264
H            -1.237799125947      -2.14373787832      -0.00169760104
C            -1.394117326826      0.000170803848      0.001981006868
H            -2.475865900014      0.000265443726      0.001461018677
C             -0.69676396638      1.206847404824      -9.5703779e-05
H            -1.237425243665      2.143795338383     -0.000181194041
C             2.777055372185      1.586302053215      6.726179032104
C             3.095069796844      2.363574010605      7.846206548937
C             3.318436005648      1.810687029604      9.107555279147
C             3.220547697332       0.41455465224      9.262618142755
C             2.903414608584      -0.37749458985      8.152814646849
C             2.685476519407      0.202376844186      6.904626350208
H             2.606697934494      2.034130482416      5.752854490945
H             3.388992974606     -0.044416216089     10.232039724416
H             2.826959825251     -1.455754288406      8.268490114334
C             3.612830618699      2.886425773062       9.99029698074
C             3.563795603302      4.053002010651       9.26168985577
H             3.724118068229       5.08290090948       9.55031809855
N             3.250430391961      3.726064649793      7.968810719386
H             3.146602482014      4.384211615212      7.209253162959
H             2.440168859863      -0.43063786148      6.054875646718
H             3.836382574124      2.810791320527      11.04614367478
