28
-1.19408788009953
C             0.697092438124      1.206228481101                   0
H             1.238751481843      2.142336379831      0.004928675883
C             1.394066202537                   0                   0
H             2.475325479251      0.000114333064      0.010977564436
C             0.696663336265       -1.2063436648     -0.001377484826
H             1.238021589736     -2.142768045099      0.001261014205
C             -0.69694068372     -1.206903024974     -0.000507818264
H            -1.237799125947      -2.14373787832      -0.00169760104
C            -1.394117326826      0.000170803848      0.001981006868
H            -2.475865900014      0.000265443726      0.001461018677
C             -0.69676396638      1.206847404824      -9.5703779e-05
H            -1.237425243665      2.143795338383     -0.000181194041
C             7.214633631979      1.586302053215      3.443834772623
C             6.085654137134      2.363574010605      3.159229584731
C             4.881610989339      1.810687029604      2.721996030797
C             4.796266764429       0.41455465224      2.559690837258
C             5.915951329466      -0.37749458985      2.839947273975
C             7.105883147653      0.202376844186      3.275301500616
H             8.142736129595      2.034130482416      3.782963174438
H             3.872500409096     -0.044416216089      2.220857935694
H             5.854000827696     -1.455754288406      2.715897755625
C             3.969936944255      2.886425773062       2.53557839364
C             4.625446731555      4.053002010651      2.857416387117
H             4.295326108595       5.08290090948      2.851945593151
N             5.901795513357      3.726064649793      3.232473721625
H             6.611505607833      4.384211615212      3.522334892203
H              7.96444267353      -0.43063786148      3.487734187453
H             2.943770907001      2.810791320527      2.201256719084
