28
-0.135705096376904
C             0.697092438124      1.206228481101                   0
H             1.238751481843      2.142336379831      0.004928675883
C             1.394066202537                   0                   0
H             2.475325479251      0.000114333064      0.010977564436
C             0.696663336265       -1.2063436648     -0.001377484826
H             1.238021589736     -2.142768045099      0.001261014205
C             -0.69694068372     -1.206903024974     -0.000507818264
H            -1.237799125947      -2.14373787832      -0.00169760104
C            -1.394117326826      0.000170803848      0.001981006868
H            -2.475865900014      0.000265443726      0.001461018677
C             -0.69676396638      1.206847404824      -9.5703779e-05
H            -1.237425243665      2.143795338383     -0.000181194041
C             3.902230351798      0.129158011573      7.108768116335
C             4.246675146718     -1.103993007593       7.67484483877
C             5.320410675459     -1.255853201729      8.552687416888
C             6.090195030244      -0.12429852769      8.884090939028
C             5.759376335038      1.116537984961      8.326898927983
C             4.681112460743      1.238448740478      7.452709760995
H             3.063500266661      0.227989485927      6.427815250886
H             6.931778793638     -0.211528886951      9.564483403725
H             6.351260472731      1.992500542045      8.580341014733
C             5.369461105293     -2.628841132195      8.920944313943
C             4.342380940662     -3.274822226914      8.271338545736
H             4.032731585426     -4.311054958019      8.277686843701
N             3.670972224019     -2.345246598773      7.521857564201
H             2.868232015934     -2.535439812035      6.938505145459
H             4.440556670936      2.211530908298      7.030567924451
H             6.082320826758     -3.091263121919      9.590649629311
