28
-2.3437685170736
C             0.697092438124      1.206228481101                   0
H             1.238751481843      2.142336379831      0.004928675883
C             1.394066202537                   0                   0
H             2.475325479251      0.000114333064      0.010977564436
C             0.696663336265       -1.2063436648     -0.001377484826
H             1.238021589736     -2.142768045099      0.001261014205
C             -0.69694068372     -1.206903024974     -0.000507818264
H            -1.237799125947      -2.14373787832      -0.00169760104
C            -1.394117326826      0.000170803848      0.001981006868
H            -2.475865900014      0.000265443726      0.001461018677
C             -0.69676396638      1.206847404824      -9.5703779e-05
H            -1.237425243665      2.143795338383     -0.000181194041
C             1.128496705539     -1.396312344679      4.776673566968
C             1.469663644597     -0.814976040859      6.003620888598
C             1.352152930494      0.553827493035      6.246818778945
C             0.871149355209      1.386182060785      5.217919531299
C              0.52537641012      0.821088661167      3.984757045025
C             0.653160954041     -0.549809829449      3.770210189165
H             1.226614837126      -2.46315033805      4.605904280638
H             0.768886645573      2.455211211645      5.377685877037
H             0.153606916185      1.460396403881       3.18792382616
C             1.783693682087      0.780434859865      7.583058512344
C             2.149149798455     -0.433845538532      8.117977043036
H             2.528422836584     -0.698835597449       9.09554214487
N             1.955744218069     -1.390043034234      7.156258328657
H             2.140758432336     -2.376912656446      7.269056527996
H             0.379062535039     -0.969208172722      2.804842482091
H             1.821303004485      1.732642145673      8.095303680426
