28
-0.00411332154775033
C             0.697092438124      1.206228481101                   0
H             1.238751481843      2.142336379831      0.004928675883
C             1.394066202537                   0                   0
H             2.475325479251      0.000114333064      0.010977564436
C             0.696663336265       -1.2063436648     -0.001377484826
H             1.238021589736     -2.142768045099      0.001261014205
C             -0.69694068372     -1.206903024974     -0.000507818264
H            -1.237799125947      -2.14373787832      -0.00169760104
C            -1.394117326826      0.000170803848      0.001981006868
H            -2.475865900014      0.000265443726      0.001461018677
C             -0.69676396638      1.206847404824      -9.5703779e-05
H            -1.237425243665      2.143795338383     -0.000181194041
C             6.494919538986      3.129158011573      4.679285723983
C             6.510179120371      1.896006992407      5.341744943562
C             7.001140076147      1.744146798271      6.638846681107
C             7.502091121757       2.87570147231      7.310742727576
C             7.494189733184      4.116537984961      6.662790943622
C             6.997480409556      4.238448740478       5.36658898015
H             6.109034411064      3.227989485927      3.670198201155
H              7.89072780792      2.788471113049      8.320771768244
H             7.880055389148      4.992500542045      7.178220297982
C             6.859490545922      0.371158867805      6.982291723992
C             6.294815915732     -0.274822226914      5.906176543964
H              6.02347755885     -1.311054958019      5.756849653655
N             6.088099401565      0.654753401227       4.92140261598
H             5.684582198095      0.464560187965      4.014834497948
H             7.000223902827      5.211530908298      4.880725530799
H             7.141992516362     -0.091263121919      7.918703400882
