28
-0.241376043153947
C             0.697092438124      1.206228481101                   0
H             1.238751481843      2.142336379831      0.004928675883
C             1.394066202537                   0                   0
H             2.475325479251      0.000114333064      0.010977564436
C             0.696663336265       -1.2063436648     -0.001377484826
H             1.238021589736     -2.142768045099      0.001261014205
C             -0.69694068372     -1.206903024974     -0.000507818264
H            -1.237799125947      -2.14373787832      -0.00169760104
C            -1.394117326826      0.000170803848      0.001981006868
H            -2.475865900014      0.000265443726      0.001461018677
C             -0.69676396638      1.206847404824      -9.5703779e-05
H            -1.237425243665      2.143795338383     -0.000181194041
C             6.590017175827      2.144662956323      3.401919142943
C             5.572435120157      2.257786458656      4.356631844073
C             4.977513762386      1.148297922582       4.95803093169
C             5.416815513443     -0.138319615065      4.591368265148
C             6.433568973348      -0.26935263181      3.638151633058
C             7.009649454839      0.856924909314      3.053898183088
H             7.040916464738      3.019156023128      2.944880492094
H             4.972712181619     -1.020510837465      5.042275295681
H             6.775485126481     -1.260990656379       3.35246387053
C             3.996846252882      1.638544151455      5.864157200474
C             4.013641760309      3.013132371144      5.797839551061
H              3.43137250583      3.760736859469      6.319137298441
N             4.968186536901      3.376435879387      4.884889889098
H              5.20095475351      4.326186649076      4.630610953065
H             7.798412060721      0.733593444984      2.315248993711
H             3.349487888713      1.045119447139      6.496045289574
