28
-0.7972701392881
C             0.697092438124      1.206228481101                   0
H             1.238751481843      2.142336379831      0.004928675883
C             1.394066202537                   0                   0
H             2.475325479251      0.000114333064      0.010977564436
C             0.696663336265       -1.2063436648     -0.001377484826
H             1.238021589736     -2.142768045099      0.001261014205
C             -0.69694068372     -1.206903024974     -0.000507818264
H            -1.237799125947      -2.14373787832      -0.00169760104
C            -1.394117326826      0.000170803848      0.001981006868
H            -2.475865900014      0.000265443726      0.001461018677
C             -0.69676396638      1.206847404824      -9.5703779e-05
H            -1.237425243665      2.143795338383     -0.000181194041
C             5.222944627815      0.726179032104      3.586302053215
C             4.904930203156      1.846206548937      4.363574010605
C             4.681563994352      3.107555279147      3.810687029604
C             4.779452302668      3.262618142755       2.41455465224
C             5.096585391416      2.152814646849       1.62250541015
C             5.314523480593      0.904626350208      2.202376844186
H             5.393302065506     -0.247145509055      4.034130482416
H             4.611007025394      4.232039724416      1.955583783911
H             5.173040174749      2.268490114334      0.544245711594
C             4.387169381301       3.99029698074      4.886425773062
C             4.436204396698       3.26168985577      6.053002010651
H             4.275881931771       3.55031809855       7.08290090948
N             4.749569608039      1.968810719386      5.726064649793
H             4.853397517986      1.209253162959      6.384211615212
H             5.559831140137      0.054875646718       1.56936213852
H             4.163617425876       5.04614367478      4.810791320527
