28
-0.0758616337852985
C             0.697092438124      1.206228481101                   0
H             1.238751481843      2.142336379831      0.004928675883
C             1.394066202537                   0                   0
H             2.475325479251      0.000114333064      0.010977564436
C             0.696663336265       -1.2063436648     -0.001377484826
H             1.238021589736     -2.142768045099      0.001261014205
C             -0.69694068372     -1.206903024974     -0.000507818264
H            -1.237799125947      -2.14373787832      -0.00169760104
C            -1.394117326826      0.000170803848      0.001981006868
H            -2.475865900014      0.000265443726      0.001461018677
C             -0.69676396638      1.206847404824      -9.5703779e-05
H            -1.237425243665      2.143795338383     -0.000181194041
C             7.129158011573      2.396312344679      5.777055372185
C             5.896006992407      1.814976040859      6.095069796844
C             5.744146798271      0.446172506965      6.318436005648
C              6.87570147231     -0.386182060785      6.220547697332
C             8.116537984961      0.178911338833      5.903414608584
C             8.238448740478      1.549809829449      5.685476519407
H             7.227989485927       3.46315033805      5.606697934494
H             6.788471113049     -1.455211211645      6.388992974606
H             8.992500542045     -0.460396403881      5.826959825251
C             4.371158867805      0.219565140135      6.612830618699
C             3.725177773086      1.433845538532      6.563795603302
H             2.688945041981      1.698835597449      6.724118068229
N             4.654753401227      2.390043034234      6.250430391961
H             4.464560187965      3.376912656446      6.146602482014
H             9.211530908298      1.969208172722      5.440168859863
H             3.908736878081     -0.732642145673      6.836382574124
