28
-0.182515134264821
C             0.697092438124      1.206228481101                   0
H             1.238751481843      2.142336379831      0.004928675883
C             1.394066202537                   0                   0
H             2.475325479251      0.000114333064      0.010977564436
C             0.696663336265       -1.2063436648     -0.001377484826
H             1.238021589736     -2.142768045099      0.001261014205
C             -0.69694068372     -1.206903024974     -0.000507818264
H            -1.237799125947      -2.14373787832      -0.00169760104
C            -1.394117326826      0.000170803848      0.001981006868
H            -2.475865900014      0.000265443726      0.001461018677
C             -0.69676396638      1.206847404824      -9.5703779e-05
H            -1.237425243665      2.143795338383     -0.000181194041
C             2.486226737933     -1.273820967896      8.396280158468
C             2.599454146103     -0.153793451063      9.228424631547
C             2.129569844431      1.107555279147      8.861293564979
C             1.516277417484      1.262618142755      7.603263304978
C             1.394898107676      0.152814646849      6.758761995906
C             1.873573746373     -1.095373649792      7.151976344122
H             2.857674821297     -2.247145509055      8.698932235848
H             1.140914094053      2.232039724416      7.290005512046
H             0.921980043005      0.268490114334      5.786734313414
C             2.412486002521       1.99029698074      9.940107951175
C             3.038239690324       1.26168985577      10.92587510068
H             3.414345812314       1.55031809855     11.897954942859
N             3.146153243579     -0.031189280614      10.48605643506
H             3.565144333924     -0.790746837041     11.004114471563
H             1.769509058448     -1.945124353282      6.481115698274
H              2.18106710379       3.04614367478      9.986382571591
