28
-0.347052198357558
C             0.697092438124      1.206228481101                   0
H             1.238751481843      2.142336379831      0.004928675883
C             1.394066202537                   0                   0
H             2.475325479251      0.000114333064      0.010977564436
C             0.696663336265       -1.2063436648     -0.001377484826
H             1.238021589736     -2.142768045099      0.001261014205
C             -0.69694068372     -1.206903024974     -0.000507818264
H            -1.237799125947      -2.14373787832      -0.00169760104
C            -1.394117326826      0.000170803848      0.001981006868
H            -2.475865900014      0.000265443726      0.001461018677
C             -0.69676396638      1.206847404824      -9.5703779e-05
H            -1.237425243665      2.143795338383     -0.000181194041
C             5.855337043677      2.810010291464      4.777055372185
C             5.742213541344      1.451402030254      5.095069796844
C             6.851702077418      0.635485477361      5.318436005648
C             8.138319615065      1.199263286975      5.220547697332
C              8.26935263181      2.556405928683      4.903414608584
C             7.143075090686      3.347432985263      4.685476519407
H             4.980843976872      3.429019855634      4.606697934494
H             9.020510837465      0.589205004444      5.388992974606
H             9.260990656379      2.995357884525      4.826959825251
C             6.361455848545     -0.666860632927      5.612830618699
C             4.986867628856     -0.619156472119      5.563795603302
H             4.239263140531     -1.384065312031      5.724118068229
N             4.623564120613      0.663978384441      5.250430391961
H             3.673813350924      0.992701041234      5.146602482014
H             7.266406555016      4.399846034202      4.440168859863
H             6.954880552861       -1.5434334662      5.836382574124
