28
-0.420553206024359
C             0.697092438124      1.206228481101                   0
H             1.238751481843      2.142336379831      0.004928675883
C             1.394066202537                   0                   0
H             2.475325479251      0.000114333064      0.010977564436
C             0.696663336265       -1.2063436648     -0.001377484826
H             1.238021589736     -2.142768045099      0.001261014205
C             -0.69694068372     -1.206903024974     -0.000507818264
H            -1.237799125947      -2.14373787832      -0.00169760104
C            -1.394117326826      0.000170803848      0.001981006868
H            -2.475865900014      0.000265443726      0.001461018677
C             -0.69676396638      1.206847404824      -9.5703779e-05
H            -1.237425243665      2.143795338383     -0.000181194041
C             2.108768116335      0.129158011573      6.097769648202
C              2.67484483877     -1.103993007593      5.753324853282
C             3.552687416888     -1.255853201729      4.679589324541
C             3.884090939028      -0.12429852769      3.909804969756
C             3.326898927983      1.116537984961      4.240623664962
C             2.452709760995      1.238448740478      5.318887539257
H             1.427815250886      0.227989485927      6.936499733339
H             4.564483403725     -0.211528886951      3.068221206362
H             3.580341014733      1.992500542045      3.648739527269
C             3.920944313943     -2.628841132195      4.630538894707
C             3.271338545736     -3.274822226914      5.657619059338
H             3.277686843701     -4.311054958019      5.967268414574
N             2.521857564201     -2.345246598773      6.329027775981
H             1.938505145459     -2.535439812035      7.131767984066
H             2.030567924451      2.211530908298      5.559443329064
H             4.590649629311     -3.091263121919      3.917679173242
