28
-0.04276775037822
C             0.697092438124      1.206228481101                   0
H             1.238751481843      2.142336379831      0.004928675883
C             1.394066202537                   0                   0
H             2.475325479251      0.000114333064      0.010977564436
C             0.696663336265       -1.2063436648     -0.001377484826
H             1.238021589736     -2.142768045099      0.001261014205
C             -0.69694068372     -1.206903024974     -0.000507818264
H            -1.237799125947      -2.14373787832      -0.00169760104
C            -1.394117326826      0.000170803848      0.001981006868
H            -2.475865900014      0.000265443726      0.001461018677
C             -0.69676396638      1.206847404824      -9.5703779e-05
H            -1.237425243665      2.143795338383     -0.000181194041
C             1.603719841532      2.273820967896      8.513773262067
C             0.771575368453      1.153793451063      8.400545853897
C             1.138706435021     -0.107555279147      8.870430155569
C             2.396736695022     -0.262618142755      9.483722582516
C             3.241238004094      0.847185353151      9.605101892324
C             2.848023655878      2.095373649792      9.126426253627
H             1.301067764152      3.247145509055      8.142325178703
H             2.709994487954     -1.232039724416      9.859085905947
H             4.213265686586      0.731509885666     10.078019956995
C             0.059892048825      -0.99029698074      8.587513997479
C             -0.92587510068      -0.26168985577      7.961760309676
H            -1.897954942859      -0.55031809855      7.585654187686
N             -0.48605643506      1.031189280614      7.853846756421
H            -1.004114471563      1.790746837041      7.434855666076
H             3.518884301726      2.945124353282      9.230490941552
H             0.013617428409      -2.04614367478       8.81893289621
