28
-0.0591897236590854
C             0.697092438124      1.206228481101                   0
H             1.238751481843      2.142336379831      0.004928675883
C             1.394066202537                   0                   0
H             2.475325479251      0.000114333064      0.010977564436
C             0.696663336265       -1.2063436648     -0.001377484826
H             1.238021589736     -2.142768045099      0.001261014205
C             -0.69694068372     -1.206903024974     -0.000507818264
H            -1.237799125947      -2.14373787832      -0.00169760104
C            -1.394117326826      0.000170803848      0.001981006868
H            -2.475865900014      0.000265443726      0.001461018677
C             -0.69676396638      1.206847404824      -9.5703779e-05
H            -1.237425243665      2.143795338383     -0.000181194041
C             6.100075315282     -0.273820967896      4.380775213717
C             6.764119864502      0.846206548937      3.866645165297
C             6.681117185173      2.107555279147      4.457142440669
C             5.898277234756      2.262618142755      5.617284392354
C             5.227607302474      1.152814646849      6.144652612678
C             5.328803097813     -0.095373649792      5.533500175285
H             6.176455661119     -1.247145509055      3.907765698646
H             5.814669689858      3.232039724416       6.09898746256
H             4.622265668589      1.268490114334      7.040225511837
C             7.473939770541       2.99029698074      3.672722667524
C             8.014762320327       2.26168985577      2.637920502622
H             8.668555097166       2.55031809855       1.82616312537
N             7.579911406215      0.968810719386      2.764373956901
H             7.819067281288      0.209253162959      2.142488010451
H             4.799853080072     -0.945124353282      5.959053161589
H             7.629724216738       4.04614367478      3.850000002533
