28
-0.0407442848967282
C             0.697092438124      1.206228481101                   0
H             1.238751481843      2.142336379831      0.004928675883
C             1.394066202537                   0                   0
H             2.475325479251      0.000114333064      0.010977564436
C             0.696663336265       -1.2063436648     -0.001377484826
H             1.238021589736     -2.142768045099      0.001261014205
C             -0.69694068372     -1.206903024974     -0.000507818264
H            -1.237799125947      -2.14373787832      -0.00169760104
C            -1.394117326826      0.000170803848      0.001981006868
H            -2.475865900014      0.000265443726      0.001461018677
C             -0.69676396638      1.206847404824      -9.5703779e-05
H            -1.237425243665      2.143795338383     -0.000181194041
C             5.777055372185      1.810010291464      6.144662956323
C             6.095069796844      0.451402030254      6.257786458656
C             6.318436005648     -0.364514522639      5.148297922582
C             6.220547697332      0.199263286975      3.861680384935
C             5.903414608584      1.556405928683       3.73064736819
C             5.685476519407      2.347432985263      4.856924909314
H             5.606697934494      2.429019855634      7.019156023128
H             6.388992974606     -0.410794995556      2.979489162535
H             5.826959825251      1.995357884525      2.739009343621
C             6.612830618699     -1.666860632927      5.638544151455
C             6.563795603302     -1.619156472119      7.013132371144
H             6.724118068229     -2.384065312031      7.760736859469
N             6.250430391961     -0.336021615559      7.376435879387
H             6.146602482014     -0.007298958766      8.326186649076
H             5.440168859863      3.399846034202      4.733593444984
H             6.836382574124       -2.5434334662      5.045119447139
