28
-0.0993660501809159
C             0.697092438124      1.206228481101                   0
H             1.238751481843      2.142336379831      0.004928675883
C             1.394066202537                   0                   0
H             2.475325479251      0.000114333064      0.010977564436
C             0.696663336265       -1.2063436648     -0.001377484826
H             1.238021589736     -2.142768045099      0.001261014205
C             -0.69694068372     -1.206903024974     -0.000507818264
H            -1.237799125947      -2.14373787832      -0.00169760104
C            -1.394117326826      0.000170803848      0.001981006868
H            -2.475865900014      0.000265443726      0.001461018677
C             -0.69676396638      1.206847404824      -9.5703779e-05
H            -1.237425243665      2.143795338383     -0.000181194041
C             8.273820967896      2.586302053215      4.777055372185
C             7.153793451063      3.363574010605      5.095069796844
C             5.892444720853      2.810687029604      5.318436005648
C             5.737381857245       1.41455465224      5.220547697332
C             6.847185353151       0.62250541015      4.903414608584
C             8.095373649792      1.202376844186      4.685476519407
H             9.247145509055      3.034130482416      4.606697934494
H             4.767960275584      0.955583783911      5.388992974606
H             6.731509885666     -0.455754288406      4.826959825251
C              5.00970301926      3.886425773062      5.612830618699
C              5.73831014423      5.053002010651      5.563795603302
H              5.44968190145       6.08290090948      5.724118068229
N             7.031189280614      4.726064649793      5.250430391961
H             7.790746837041      5.384211615212      5.146602482014
H             8.945124353282       0.56936213852      4.440168859863
H              3.95385632522      3.810791320527      5.836382574124
