28
-0.626708926017532
C             0.697092438124      1.206228481101                   0
H             1.238751481843      2.142336379831      0.004928675883
C             1.394066202537                   0                   0
H             2.475325479251      0.000114333064      0.010977564436
C             0.696663336265       -1.2063436648     -0.001377484826
H             1.238021589736     -2.142768045099      0.001261014205
C             -0.69694068372     -1.206903024974     -0.000507818264
H            -1.237799125947      -2.14373787832      -0.00169760104
C            -1.394117326826      0.000170803848      0.001981006868
H            -2.475865900014      0.000265443726      0.001461018677
C             -0.69676396638      1.206847404824      -9.5703779e-05
H            -1.237425243665      2.143795338383     -0.000181194041
C             0.222944627815      1.396312344679      9.129158011573
C            -0.095069796844      0.814976040859      7.896006992407
C            -0.318436005648     -0.553827493035      7.744146798271
C            -0.220547697332     -1.386182060785       8.87570147231
C             0.096585391416     -0.821088661167     10.116537984961
C             0.314523480593      0.549809829449     10.238448740478
H             0.393302065506       2.46315033805      9.227989485927
H            -0.388992974606     -2.455211211645      8.788471113049
H             0.173040174749     -1.460396403881     10.992500542045
C            -0.612830618699     -0.780434859865      6.371158867805
C            -0.563795603302      0.433845538532      5.725177773086
H            -0.724118068229      0.698835597449      4.688945041981
N            -0.250430391961      1.390043034234      6.654753401227
H            -0.146602482014      2.376912656446      6.464560187965
H             0.559831140137      0.969208172722     11.211530908298
H            -0.836382574124     -1.732642145673      5.908736878081
