28
-1.62993818676077
C             0.697092438124      1.206228481101                   0
H             1.238751481843      2.142336379831      0.004928675883
C             1.394066202537                   0                   0
H             2.475325479251      0.000114333064      0.010977564436
C             0.696663336265       -1.2063436648     -0.001377484826
H             1.238021589736     -2.142768045099      0.001261014205
C             -0.69694068372     -1.206903024974     -0.000507818264
H            -1.237799125947      -2.14373787832      -0.00169760104
C            -1.394117326826      0.000170803848      0.001981006868
H            -2.475865900014      0.000265443726      0.001461018677
C             -0.69676396638      1.206847404824      -9.5703779e-05
H            -1.237425243665      2.143795338383     -0.000181194041
C             3.189989708536     -1.144662956323      3.777055372185
C             4.548597969746     -1.257786458656      4.095069796844
C             5.364514522639     -0.148297922582      4.318436005648
C             4.800736713025      1.138319615065      4.220547697332
C             3.443594071317       1.26935263181      3.903414608584
C             2.652567014737      0.143075090686      3.685476519407
H             2.570980144366     -2.019156023128      3.606697934494
H             5.410794995556      2.020510837465      4.388992974606
H             3.004642115475      2.260990656379      3.826959825251
C             6.666860632927     -0.638544151455      4.612830618699
C             6.619156472119     -2.013132371144      4.563795603302
H             7.384065312031     -2.760736859469      4.724118068229
N             5.336021615559     -2.376435879387      4.250430391961
H             5.007298958766     -3.326186649076      4.146602482014
H             1.600153965798      0.266406555016      3.440168859863
H               7.5434334662     -0.045119447139      4.836382574124
