28
-0.0999431074470985
C             0.697092438124      1.206228481101                   0
H             1.238751481843      2.142336379831      0.004928675883
C             1.394066202537                   0                   0
H             2.475325479251      0.000114333064      0.010977564436
C             0.696663336265       -1.2063436648     -0.001377484826
H             1.238021589736     -2.142768045099      0.001261014205
C             -0.69694068372     -1.206903024974     -0.000507818264
H            -1.237799125947      -2.14373787832      -0.00169760104
C            -1.394117326826      0.000170803848      0.001981006868
H            -2.475865900014      0.000265443726      0.001461018677
C             -0.69676396638      1.206847404824      -9.5703779e-05
H            -1.237425243665      2.143795338383     -0.000181194041
C             6.222944627815      2.870841988427      5.396312344679
C             5.904930203156      4.103993007593      4.814976040859
C             5.681563994352      4.255853201729      3.446172506965
C             5.779452302668       3.12429852769      2.613817939215
C             6.096585391416      1.883462015039      3.178911338833
C             6.314523480593      1.761551259522      4.549809829449
H             6.393302065506      2.772010514073       6.46315033805
H             5.611007025394      3.211528886951      1.544788788355
H             6.173040174749      1.007499457955      2.539603596119
C             5.387169381301      5.628841132195      3.219565140135
C             5.436204396698      6.274822226914      4.433845538532
H             5.275881931771      7.311054958019      4.698835597449
N             5.749569608039      5.345246598773      5.390043034234
H             5.853397517986      5.535439812035      6.376912656446
H             6.559831140137      0.788469091702      4.969208172722
H             5.163617425876      6.091263121919      2.267357854327
