28
-2.22468964824419
C             0.697092438124      1.206228481101                   0
H             1.238751481843      2.142336379831      0.004928675883
C             1.394066202537                   0                   0
H             2.475325479251      0.000114333064      0.010977564436
C             0.696663336265       -1.2063436648     -0.001377484826
H             1.238021589736     -2.142768045099      0.001261014205
C             -0.69694068372     -1.206903024974     -0.000507818264
H            -1.237799125947      -2.14373787832      -0.00169760104
C            -1.394117326826      0.000170803848      0.001981006868
H            -2.475865900014      0.000265443726      0.001461018677
C             -0.69676396638      1.206847404824      -9.5703779e-05
H            -1.237425243665      2.143795338383     -0.000181194041
C             3.187038196358     -1.144662956323      3.211929434407
C             4.522634676687     -1.257786458656      2.808033874326
C             5.340922243262     -0.148297922582      2.593516409051
C             4.803732183889      1.138319615065      2.790631552123
C             3.469845635236       1.26935263181      3.194557561741
C             2.675827064568      0.143075090686      3.401331168351
H             2.565781469756     -2.019156023128      3.373900347728
H             5.416280792987      2.020510837465      2.631480300124
H              3.05147469877      2.260990656379      3.347821755054
C             6.615984365817     -0.638544151455      2.197296567547
C             6.550153842993     -2.013132371144      2.178683078942
H             7.292745562399     -2.760736859469  1.9350719864100001
N              5.28224385506     -2.376435879387      2.548868273538
H             4.945647728504     -3.326186649076      2.623311994299
H             1.641756799142      0.266406555016      3.715095027913
H             7.486894685411     -0.045119447139      1.952611823374
