28
-0.106285278190149
C             0.697092438124      1.206228481101                   0
H             1.238751481843      2.142336379831      0.004928675883
C             1.394066202537                   0                   0
H             2.475325479251      0.000114333064      0.010977564436
C             0.696663336265       -1.2063436648     -0.001377484826
H             1.238021589736     -2.142768045099      0.001261014205
C             -0.69694068372     -1.206903024974     -0.000507818264
H            -1.237799125947      -2.14373787832      -0.00169760104
C            -1.394117326826      0.000170803848      0.001981006868
H            -2.475865900014      0.000265443726      0.001461018677
C             -0.69676396638      1.206847404824      -9.5703779e-05
H            -1.237425243665      2.143795338383     -0.000181194041
C             6.187038196358      0.855337043677      5.211929434407
C             7.522634676687      0.742213541344      4.808033874326
C             8.340922243262      1.851702077418      4.593516409051
C             7.803732183889      3.138319615065      4.790631552123
C             6.469845635236       3.26935263181      5.194557561741
C             5.675827064568      2.143075090686      5.401331168351
H             5.565781469756     -0.019156023128      5.373900347728
H             8.416280792987      4.020510837465      4.631480300124
H              6.05147469877      4.260990656379      5.347821755054
C             9.615984365817      1.361455848545      4.197296567547
C             9.550153842993     -0.013132371144      4.178683078942
H            10.292745562399     -0.760736859469       3.93507198641
N              8.28224385506     -0.376435879387      4.548868273538
H             7.945647728504     -1.326186649076      4.623311994299
H             4.641756799142      2.266406555016      5.715095027913
H            10.486894685411      1.954880552861      3.952611823374
