28
-0.190784322320216
C             0.697092438124      1.206228481101                   0
H             1.238751481843      2.142336379831      0.004928675883
C             1.394066202537                   0                   0
H             2.475325479251      0.000114333064      0.010977564436
C             0.696663336265       -1.2063436648     -0.001377484826
H             1.238021589736     -2.142768045099      0.001261014205
C             -0.69694068372     -1.206903024974     -0.000507818264
H            -1.237799125947      -2.14373787832      -0.00169760104
C            -1.394117326826      0.000170803848      0.001981006868
H            -2.475865900014      0.000265443726      0.001461018677
C             -0.69676396638      1.206847404824      -9.5703779e-05
H            -1.237425243665      2.143795338383     -0.000181194041
C             4.902230351798      0.129158011573      6.108768116335
C             5.246675146718     -1.103993007593       6.67484483877
C             6.320410675459     -1.255853201729      7.552687416888
C             7.090195030244      -0.12429852769      7.884090939028
C             6.759376335038      1.116537984961      7.326898927983
C             5.681112460743      1.238448740478      6.452709760995
H             4.063500266661      0.227989485927      5.427815250886
H             7.931778793638     -0.211528886951      8.564483403725
H             7.351260472731      1.992500542045      7.580341014733
C             6.369461105293     -2.628841132195      7.920944313943
C             5.342380940662     -3.274822226914      7.271338545736
H             5.032731585426     -4.311054958019      7.277686843701
N             4.670972224019     -2.345246598773      6.521857564201
H             3.868232015934     -2.535439812035      5.938505145459
H             5.440556670936      2.211530908298      6.030567924451
H             7.082320826758     -3.091263121919      8.590649629311
