28
-0.00403958923526437
C             0.697092438124      1.206228481101                   0
H             1.238751481843      2.142336379831      0.004928675883
C             1.394066202537                   0                   0
H             2.475325479251      0.000114333064      0.010977564436
C             0.696663336265       -1.2063436648     -0.001377484826
H             1.238021589736     -2.142768045099      0.001261014205
C             -0.69694068372     -1.206903024974     -0.000507818264
H            -1.237799125947      -2.14373787832      -0.00169760104
C            -1.394117326826      0.000170803848      0.001981006868
H            -2.475865900014      0.000265443726      0.001461018677
C             -0.69676396638      1.206847404824      -9.5703779e-05
H            -1.237425243665      2.143795338383     -0.000181194041
C             4.144662956323      0.189989708536      6.777055372185
C             4.257786458656      1.548597969746      7.095069796844
C             3.148297922582      2.364514522639      7.318436005648
C             1.861680384935      1.800736713025      7.220547697332
C              1.73064736819      0.443594071317      6.903414608584
C             2.856924909314     -0.347432985263      6.685476519407
H             5.019156023128     -0.429019855634      6.606697934494
H             0.979489162535      2.410794995556      7.388992974606
H             0.739009343621      0.004642115475      6.826959825251
C             3.638544151455      3.666860632927      7.612830618699
C             5.013132371144      3.619156472119      7.563795603302
H             5.760736859469      4.384065312031      7.724118068229
N             5.376435879387      2.336021615559      7.250430391961
H             6.326186649076      2.007298958766      7.146602482014
H             2.733593444984     -1.399846034202      6.440168859863
H             3.045119447139        4.5434334662      7.836382574124
