28
-0.496015493089144
C             0.697092438124      1.206228481101                   0
H             1.238751481843      2.142336379831      0.004928675883
C             1.394066202537                   0                   0
H             2.475325479251      0.000114333064      0.010977564436
C             0.696663336265       -1.2063436648     -0.001377484826
H             1.238021589736     -2.142768045099      0.001261014205
C             -0.69694068372     -1.206903024974     -0.000507818264
H            -1.237799125947      -2.14373787832      -0.00169760104
C            -1.394117326826      0.000170803848      0.001981006868
H            -2.475865900014      0.000265443726      0.001461018677
C             -0.69676396638      1.206847404824      -9.5703779e-05
H            -1.237425243665      2.143795338383     -0.000181194041
C             5.777055372185      2.129158011573      4.396312344679
C             6.095069796844      0.896006992407      3.814976040859
C             6.318436005648      0.744146798271      2.446172506965
C             6.220547697332       1.87570147231      1.613817939215
C             5.903414608584      3.116537984961      2.178911338833
C             5.685476519407      3.238448740478      3.549809829449
H             5.606697934494      2.227989485927       5.46315033805
H             6.388992974606      1.788471113049      0.544788788355
H             5.826959825251      3.992500542045      1.539603596119
C             6.612830618699     -0.628841132195      2.219565140135
C             6.563795603302     -1.274822226914      3.433845538532
H             6.724118068229     -2.311054958019      3.698835597449
N             6.250430391961     -0.345246598773      4.390043034234
H             6.146602482014     -0.535439812035      5.376912656446
H             5.440168859863      4.211530908298      3.969208172722
H             6.836382574124     -1.091263121919      1.267357854327
