28
-0.0359651763140005
C             0.697092438124      1.206228481101                   0
H             1.238751481843      2.142336379831      0.004928675883
C             1.394066202537                   0                   0
H             2.475325479251      0.000114333064      0.010977564436
C             0.696663336265       -1.2063436648     -0.001377484826
H             1.238021589736     -2.142768045099      0.001261014205
C             -0.69694068372     -1.206903024974     -0.000507818264
H            -1.237799125947      -2.14373787832      -0.00169760104
C            -1.394117326826      0.000170803848      0.001981006868
H            -2.475865900014      0.000265443726      0.001461018677
C             -0.69676396638      1.206847404824      -9.5703779e-05
H            -1.237425243665      2.143795338383     -0.000181194041
C             6.214633631979      0.586302053215      8.443834772623
C             5.085654137134      1.363574010605      8.159229584731
C             3.881610989339      0.810687029604      7.721996030797
C             3.796266764429      -0.58544534776      7.559690837258
C             4.915951329466      -1.37749458985      7.839947273975
C             6.105883147653     -0.797623155814      8.275301500616
H             7.142736129595      1.034130482416      8.782963174438
H             2.872500409096     -1.044416216089      7.220857935694
H             4.854000827696     -2.455754288406      7.715897755625
C             2.969936944255      1.886425773062       7.53557839364
C             3.625446731555      3.053002010651      7.857416387117
H             3.295326108595       4.08290090948      7.851945593151
N             4.901795513357      2.726064649793      8.232473721625
H             5.611505607833      3.384211615212      8.522334892203
H              6.96444267353      -1.43063786148      8.487734187453
H             1.943770907001      1.810791320527      7.201256719084
