28
-0.0663908914909195
C             0.697092438124      1.206228481101                   0
H             1.238751481843      2.142336379831      0.004928675883
C             1.394066202537                   0                   0
H             2.475325479251      0.000114333064      0.010977564436
C             0.696663336265       -1.2063436648     -0.001377484826
H             1.238021589736     -2.142768045099      0.001261014205
C             -0.69694068372     -1.206903024974     -0.000507818264
H            -1.237799125947      -2.14373787832      -0.00169760104
C            -1.394117326826      0.000170803848      0.001981006868
H            -2.475865900014      0.000265443726      0.001461018677
C             -0.69676396638      1.206847404824      -9.5703779e-05
H            -1.237425243665      2.143795338383     -0.000181194041
C             5.273820967896      0.586302053215      5.777055372185
C             4.153793451063      1.363574010605      6.095069796844
C             2.892444720853      0.810687029604      6.318436005648
C             2.737381857245      -0.58544534776      6.220547697332
C             3.847185353151      -1.37749458985      5.903414608584
C             5.095373649792     -0.797623155814      5.685476519407
H             6.247145509055      1.034130482416      5.606697934494
H             1.767960275584     -1.044416216089      6.388992974606
H             3.731509885666     -2.455754288406      5.826959825251
C              2.00970301926      1.886425773062      6.612830618699
C              2.73831014423      3.053002010651      6.563795603302
H              2.44968190145       4.08290090948      6.724118068229
N             4.031189280614      2.726064649793      6.250430391961
H             4.790746837041      3.384211615212      6.146602482014
H             5.945124353282      -1.43063786148      5.440168859863
H              0.95385632522      1.810791320527      6.836382574124
