28
-2.10474569542465
C             0.697092438124      1.206228481101                   0
H             1.238751481843      2.142336379831      0.004928675883
C             1.394066202537                   0                   0
H             2.475325479251      0.000114333064      0.010977564436
C             0.696663336265       -1.2063436648     -0.001377484826
H             1.238021589736     -2.142768045099      0.001261014205
C             -0.69694068372     -1.206903024974     -0.000507818264
H            -1.237799125947      -2.14373787832      -0.00169760104
C            -1.394117326826      0.000170803848      0.001981006868
H            -2.475865900014      0.000265443726      0.001461018677
C             -0.69676396638      1.206847404824      -9.5703779e-05
H            -1.237425243665      2.143795338383     -0.000181194041
C             5.097769648202     -0.129158011573      2.108768116335
C             4.753324853282      1.103993007593       2.67484483877
C             3.679589324541      1.255853201729      3.552687416888
C             2.909804969756       0.12429852769      3.884090939028
C             3.240623664962     -1.116537984961      3.326898927983
C             4.318887539257     -1.238448740478      2.452709760995
H             5.936499733339     -0.227989485927      1.427815250886
H             2.068221206362      0.211528886951      4.564483403725
H             2.648739527269     -1.992500542045      3.580341014733
C             3.630538894707      2.628841132195      3.920944313943
C             4.657619059338      3.274822226914      3.271338545736
H             4.967268414574      4.311054958019      3.277686843701
N             5.329027775981      2.345246598773      2.521857564201
H             6.131767984066      2.535439812035      1.938505145459
H             4.559443329064     -2.211530908298      2.030567924451
H             2.917679173242      3.091263121919      4.590649629311
