28
-0.801713593317969
C             0.697092438124      1.206228481101                   0
H             1.238751481843      2.142336379831      0.004928675883
C             1.394066202537                   0                   0
H             2.475325479251      0.000114333064      0.010977564436
C             0.696663336265       -1.2063436648     -0.001377484826
H             1.238021589736     -2.142768045099      0.001261014205
C             -0.69694068372     -1.206903024974     -0.000507818264
H            -1.237799125947      -2.14373787832      -0.00169760104
C            -1.394117326826      0.000170803848      0.001981006868
H            -2.475865900014      0.000265443726      0.001461018677
C             -0.69676396638      1.206847404824      -9.5703779e-05
H            -1.237425243665      2.143795338383     -0.000181194041
C             2.726179032104      1.413697946785      4.777055372185
C             3.846206548937      0.636425989395      5.095069796844
C             5.107555279147      1.189312970396      5.318436005648
C             5.262618142755       2.58544534776      5.220547697332
C             4.152814646849       3.37749458985      4.903414608584
C             2.904626350208      2.797623155814      4.685476519407
H             1.752854490945      0.965869517584      4.606697934494
H             6.232039724416      3.044416216089      5.388992974606
H             4.268490114334      4.455754288406      4.826959825251
C              5.99029698074      0.113574226938      5.612830618699
C              5.26168985577     -1.053002010651      5.563795603302
H              5.55031809855      -2.08290090948      5.724118068229
N             3.968810719386     -0.726064649793      5.250430391961
H             3.209253162959     -1.384211615212      5.146602482014
H             2.054875646718       3.43063786148      4.440168859863
H              7.04614367478      0.189208679473      5.836382574124
