28
-1.84406967167921
C             0.697092438124      1.206228481101                   0
H             1.238751481843      2.142336379831      0.004928675883
C             1.394066202537                   0                   0
H             2.475325479251      0.000114333064      0.010977564436
C             0.696663336265       -1.2063436648     -0.001377484826
H             1.238021589736     -2.142768045099      0.001261014205
C             -0.69694068372     -1.206903024974     -0.000507818264
H            -1.237799125947      -2.14373787832      -0.00169760104
C            -1.394117326826      0.000170803848      0.001981006868
H            -2.475865900014      0.000265443726      0.001461018677
C             -0.69676396638      1.206847404824      -9.5703779e-05
H            -1.237425243665      2.143795338383     -0.000181194041
C             5.144662956323     -0.810010291464      2.777055372185
C             5.257786458656      0.548597969746      3.095069796844
C             4.148297922582      1.364514522639      3.318436005648
C             2.861680384935      0.800736713025      3.220547697332
C              2.73064736819     -0.556405928683      2.903414608584
C             3.856924909314     -1.347432985263      2.685476519407
H             6.019156023128     -1.429019855634      2.606697934494
H             1.979489162535      1.410794995556      3.388992974606
H             1.739009343621     -0.995357884525      2.826959825251
C             4.638544151455      2.666860632927      3.612830618699
C             6.013132371144      2.619156472119      3.563795603302
H             6.760736859469      3.384065312031      3.724118068229
N             6.376435879387      1.336021615559      3.250430391961
H             7.326186649076      1.007298958766      3.146602482014
H             3.733593444984     -2.399846034202      2.440168859863
H             4.045119447139        3.5434334662      3.836382574124
