28
-0.283698575932284
C             0.697092438124      1.206228481101                   0
H             1.238751481843      2.142336379831      0.004928675883
C             1.394066202537                   0                   0
H             2.475325479251      0.000114333064      0.010977564436
C             0.696663336265       -1.2063436648     -0.001377484826
H             1.238021589736     -2.142768045099      0.001261014205
C             -0.69694068372     -1.206903024974     -0.000507818264
H            -1.237799125947      -2.14373787832      -0.00169760104
C            -1.394117326826      0.000170803848      0.001981006868
H            -2.475865900014      0.000265443726      0.001461018677
C             -0.69676396638      1.206847404824      -9.5703779e-05
H            -1.237425243665      2.143795338383     -0.000181194041
C             8.320714276017     -0.129158011573      4.505080461014
C             7.658255056438      1.103993007593      4.489820879629
C             6.361153318893      1.255853201729      3.998859923853
C             5.689257272424       0.12429852769      3.497908878243
C             6.337209056378     -1.116537984961      3.505810266816
C              7.63341101985     -1.238448740478      4.002519590444
H             9.329801798845     -0.227989485927      4.890965588936
H             4.679228231756      0.211528886951       3.10927219208
H             5.821779702018     -1.992500542045      3.119944610852
C             6.017708276008      2.628841132195      4.140509454078
C             7.093823456036      3.274822226914      4.705184084268
H             7.243150346345      4.311054958019       4.97652244115
N              8.07859738402      2.345246598773      4.911900598435
H             8.985165502052      2.535439812035      5.315417801905
H             8.119274469201     -2.211530908298      3.999776097173
H             5.081296599118      3.091263121919      3.858007483638
