28
-0.319614367289472
C             0.697092438124      1.206228481101                   0
H             1.238751481843      2.142336379831      0.004928675883
C             1.394066202537                   0                   0
H             2.475325479251      0.000114333064      0.010977564436
C             0.696663336265       -1.2063436648     -0.001377484826
H             1.238021589736     -2.142768045099      0.001261014205
C             -0.69694068372     -1.206903024974     -0.000507818264
H            -1.237799125947      -2.14373787832      -0.00169760104
C            -1.394117326826      0.000170803848      0.001981006868
H            -2.475865900014      0.000265443726      0.001461018677
C             -0.69676396638      1.206847404824      -9.5703779e-05
H            -1.237425243665      2.143795338383     -0.000181194041
C             7.598080857057      2.144662956323      4.590017175827
C             6.643368155927      2.257786458656      3.572435120157
C              6.04196906831      1.148297922582      2.977513762386
C             6.408631734852     -0.138319615065      3.416815513443
C             7.361848366942      -0.26935263181      4.433568973348
C             7.946101816912      0.856924909314      5.009649454839
H             8.055119507906      3.019156023128      5.040916464738
H             5.957724704319     -1.020510837465      2.972712181619
H              7.64753612947     -1.260990656379      4.775485126481
C             5.135842799526      1.638544151455      1.996846252882
C             5.202160448939      3.013132371144      2.013641760309
H             4.680862701559      3.760736859469       1.43137250583
N             6.115110110902      3.376435879387      2.968186536901
H             6.369389046935      4.326186649076       3.20095475351
H             8.684751006289      0.733593444984      5.798412060721
H             4.503954710426      1.045119447139      1.349487888713
