28
-0.188611133176706
C             0.697092438124      1.206228481101                   0
H             1.238751481843      2.142336379831      0.004928675883
C             1.394066202537                   0                   0
H             2.475325479251      0.000114333064      0.010977564436
C             0.696663336265       -1.2063436648     -0.001377484826
H             1.238021589736     -2.142768045099      0.001261014205
C             -0.69694068372     -1.206903024974     -0.000507818264
H            -1.237799125947      -2.14373787832      -0.00169760104
C            -1.394117326826      0.000170803848      0.001981006868
H            -2.475865900014      0.000265443726      0.001461018677
C             -0.69676396638      1.206847404824      -9.5703779e-05
H            -1.237425243665      2.143795338383     -0.000181194041
C             6.222944627815     -0.396312344679      3.870841988427
C             5.904930203156      0.185023959141      5.103993007593
C             5.681563994352      1.553827493035      5.255853201729
C             5.779452302668      2.386182060785       4.12429852769
C             6.096585391416      1.821088661167      2.883462015039
C             6.314523480593      0.450190170551      2.761551259522
H             6.393302065506      -1.46315033805      3.772010514073
H             5.611007025394      3.455211211645      4.211528886951
H             6.173040174749      2.460396403881      2.007499457955
C             5.387169381301      1.780434859865      6.628841132195
C             5.436204396698      0.566154461468      7.274822226914
H             5.275881931771      0.301164402551      8.311054958019
N             5.749569608039     -0.390043034234      6.345246598773
H             5.853397517986     -1.376912656446      6.535439812035
H             6.559831140137      0.030791827278      1.788469091702
H             5.163617425876      2.732642145673      7.091263121919
