28
-0.159829805351074
C             0.697092438124      1.206228481101                   0
H             1.238751481843      2.142336379831      0.004928675883
C             1.394066202537                   0                   0
H             2.475325479251      0.000114333064      0.010977564436
C             0.696663336265       -1.2063436648     -0.001377484826
H             1.238021589736     -2.142768045099      0.001261014205
C             -0.69694068372     -1.206903024974     -0.000507818264
H            -1.237799125947      -2.14373787832      -0.00169760104
C            -1.394117326826      0.000170803848      0.001981006868
H            -2.475865900014      0.000265443726      0.001461018677
C             -0.69676396638      1.206847404824      -9.5703779e-05
H            -1.237425243665      2.143795338383     -0.000181194041
C             8.097769648202      0.870841988427      3.108768116335
C             7.753324853282      2.103993007593       3.67484483877
C             6.679589324541      2.255853201729      4.552687416888
C             5.909804969756       1.12429852769      4.884090939028
C             6.240623664962     -0.116537984961      4.326898927983
C             7.318887539257     -0.238448740478      3.452709760995
H             8.936499733339      0.772010514073      2.427815250886
H             5.068221206362      1.211528886951      5.564483403725
H             5.648739527269     -0.992500542045      4.580341014733
C             6.630538894707      3.628841132195      4.920944313943
C             7.657619059338      4.274822226914      4.271338545736
H             7.967268414574      5.311054958019      4.277686843701
N             8.329027775981      3.345246598773      3.521857564201
H             9.131767984066      3.535439812035      2.938505145459
H             7.559443329064     -1.211530908298      3.030567924451
H             5.917679173242      4.091263121919      5.590649629311
