28
-0.342809296251893
C             0.697092438124      1.206228481101                   0
H             1.238751481843      2.142336379831      0.004928675883
C             1.394066202537                   0                   0
H             2.475325479251      0.000114333064      0.010977564436
C             0.696663336265       -1.2063436648     -0.001377484826
H             1.238021589736     -2.142768045099      0.001261014205
C             -0.69694068372     -1.206903024974     -0.000507818264
H            -1.237799125947      -2.14373787832      -0.00169760104
C            -1.394117326826      0.000170803848      0.001981006868
H            -2.475865900014      0.000265443726      0.001461018677
C             -0.69676396638      1.206847404824      -9.5703779e-05
H            -1.237425243665      2.143795338383     -0.000181194041
C             5.742345282888      1.603687655321      3.000381805217
C             6.634329362996      2.185023959141      2.091448908246
C             6.903700271235      3.553827493035      2.071617226703
C             6.253149172481      4.386182060785      3.002628166033
C             5.358085604919      3.821088661167      3.918657563559
C             5.108390305481      2.450190170551      3.915266330242
H             5.545395676947       0.53684966195      3.000793653856
H             6.442642241378      5.455211211645      3.011307097569
H              4.85389254177      4.460396403881      4.639035999091
C             7.845147450108      3.780434859865      1.029772106355
C             8.125672428459      2.566154461468      0.445818560266
H             8.782632121435      2.301164402551     -0.371424076641
N             7.389502380704      1.609956965766      1.094172063304
H             7.394681379699      0.623087343554      0.877545954018
H             4.409406556663      2.030791827278      4.635326377772
H             8.269960117434      4.732642145673      0.741078893698
