28
-0.0815768602535248
C             0.697092438124      1.206228481101                   0
H             1.238751481843      2.142336379831      0.004928675883
C             1.394066202537                   0                   0
H             2.475325479251      0.000114333064      0.010977564436
C             0.696663336265       -1.2063436648     -0.001377484826
H             1.238021589736     -2.142768045099      0.001261014205
C             -0.69694068372     -1.206903024974     -0.000507818264
H            -1.237799125947      -2.14373787832      -0.00169760104
C            -1.394117326826      0.000170803848      0.001981006868
H            -2.475865900014      0.000265443726      0.001461018677
C             -0.69676396638      1.206847404824      -9.5703779e-05
H            -1.237425243665      2.143795338383     -0.000181194041
C             6.765407189487      1.189989708536      5.879834885039
C             6.546560370128      2.548597969746      6.136809924154
C              5.79837529092      3.364514522639      5.287647771108
C             5.239840283832      2.800736713025      4.124460144394
C             5.448969086695      1.443594071317      3.852415678783
C             6.200847778937      0.652567014737      4.718831596521
H             7.350187591653      0.570980144366       6.55198937748
H             4.652866783365      3.410794995556      3.444682773436
H             5.019361859018      1.004642115475      2.955404566482
C             5.788545191717      4.666860632927      5.859410765948
C             6.518304870571      4.619156472119      7.025321576243
H             6.753263787309      5.384065312031      7.752927287579
N             6.971338858375      3.336021615559      7.183269037994
H             7.536131850856      3.007298958766      7.953863376836
H              6.35162471168     -0.399846034202      4.489369585553
H             5.298231167096        5.5434334662      5.457265874489
