28
-0.261753707726555
C             0.697092438124      1.206228481101                   0
H             1.238751481843      2.142336379831      0.004928675883
C             1.394066202537                   0                   0
H             2.475325479251      0.000114333064      0.010977564436
C             0.696663336265       -1.2063436648     -0.001377484826
H             1.238021589736     -2.142768045099      0.001261014205
C             -0.69694068372     -1.206903024974     -0.000507818264
H            -1.237799125947      -2.14373787832      -0.00169760104
C            -1.394117326826      0.000170803848      0.001981006868
H            -2.475865900014      0.000265443726      0.001461018677
C             -0.69676396638      1.206847404824      -9.5703779e-05
H            -1.237425243665      2.143795338383     -0.000181194041
C             8.222944627815      3.273820967896      2.413697946785
C             7.904930203156      2.153793451063      1.636425989395
C             7.681563994352      0.892444720853      2.189312970396
C             7.779452302668      0.737381857245       3.58544534776
C             8.096585391416      1.847185353151       4.37749458985
C             8.314523480593      3.095373649792      3.797623155814
H             8.393302065506      4.247145509055      1.965869517584
H             7.611007025394     -0.232039724416      4.044416216089
H             8.173040174749      1.731509885666      5.455754288406
C             7.387169381301       0.00970301926      1.113574226938
C             7.436204396698       0.73831014423     -0.053002010651
H             7.275881931771       0.44968190145      -1.08290090948
N             7.749569608039      2.031189280614      0.273935350207
H             7.853397517986      2.790746837041     -0.384211615212
H             8.559831140137      3.945124353282       4.43063786148
H             7.163617425876      -1.04614367478      1.189208679473
