28
-0.0858550284058063
C             0.697092438124      1.206228481101                   0
H             1.238751481843      2.142336379831      0.004928675883
C             1.394066202537                   0                   0
H             2.475325479251      0.000114333064      0.010977564436
C             0.696663336265       -1.2063436648     -0.001377484826
H             1.238021589736     -2.142768045099      0.001261014205
C             -0.69694068372     -1.206903024974     -0.000507818264
H            -1.237799125947      -2.14373787832      -0.00169760104
C            -1.394117326826      0.000170803848      0.001981006868
H            -2.475865900014      0.000265443726      0.001461018677
C             -0.69676396638      1.206847404824      -9.5703779e-05
H            -1.237425243665      2.143795338383     -0.000181194041
C             7.097769648202      1.870841988427      4.108768116335
C             6.753324853282      3.103993007593       4.67484483877
C             5.679589324541      3.255853201729      5.552687416888
C             4.909804969756       2.12429852769      5.884090939028
C             5.240623664962      0.883462015039      5.326898927983
C             6.318887539257      0.761551259522      4.452709760995
H             7.936499733339      1.772010514073      3.427815250886
H             4.068221206362      2.211528886951      6.564483403725
H             4.648739527269      0.007499457955      5.580341014733
C             5.630538894707      4.628841132195      5.920944313943
C             6.657619059338      5.274822226914      5.271338545736
H             6.967268414574      6.311054958019      5.277686843701
N             7.329027775981      4.345246598773      4.521857564201
H             8.131767984066      4.535439812035      3.938505145459
H             6.559443329064     -0.211530908298      4.030567924451
H             4.917679173242      5.091263121919      6.590649629311
