28
-0.067826318343522
C             0.697092438124      1.206228481101                   0
H             1.238751481843      2.142336379831      0.004928675883
C             1.394066202537                   0                   0
H             2.475325479251      0.000114333064      0.010977564436
C             0.696663336265       -1.2063436648     -0.001377484826
H             1.238021589736     -2.142768045099      0.001261014205
C             -0.69694068372     -1.206903024974     -0.000507818264
H            -1.237799125947      -2.14373787832      -0.00169760104
C            -1.394117326826      0.000170803848      0.001981006868
H            -2.475865900014      0.000265443726      0.001461018677
C             -0.69676396638      1.206847404824      -9.5703779e-05
H            -1.237425243665      2.143795338383     -0.000181194041
C             4.396280158468      0.726179032104      5.513773262067
C             5.228424631547      1.846206548937      5.400545853897
C             4.861293564979      3.107555279147      5.870430155569
C             3.603263304978      3.262618142755      6.483722582516
C             2.758761995906      2.152814646849      6.605101892324
C             3.151976344122      0.904626350208      6.126426253627
H             4.698932235848     -0.247145509055      5.142325178703
H             3.290005512046      4.232039724416      6.859085905947
H             1.786734313414      2.268490114334      7.078019956995
C             5.940107951175       3.99029698074      5.587513997479
C              6.92587510068       3.26168985577      4.961760309676
H             7.897954942859       3.55031809855      4.585654187686
N              6.48605643506      1.968810719386      4.853846756421
H             7.004114471563      1.209253162959      4.434855666076
H             2.481115698274      0.054875646718      6.230490941552
H             5.986382571591       5.04614367478       5.81893289621
