28
-1.9408471844718
C             0.697092438124      1.206228481101                   0
H             1.238751481843      2.142336379831      0.004928675883
C             1.394066202537                   0                   0
H             2.475325479251      0.000114333064      0.010977564436
C             0.696663336265       -1.2063436648     -0.001377484826
H             1.238021589736     -2.142768045099      0.001261014205
C             -0.69694068372     -1.206903024974     -0.000507818264
H            -1.237799125947      -2.14373787832      -0.00169760104
C            -1.394117326826      0.000170803848      0.001981006868
H            -2.475865900014      0.000265443726      0.001461018677
C             -0.69676396638      1.206847404824      -9.5703779e-05
H            -1.237425243665      2.143795338383     -0.000181194041
C             3.008310995836      1.413697946785      3.170013804727
C             3.819276066022      0.636425989395      4.005436133668
C             4.799953005013      1.189312970396      4.829551309944
C             4.983185538239       2.58544534776      4.822308980013
C              4.18063406195       3.37749458985      3.992761920824
C              3.20864033294      2.797623155814      3.179927850824
H             2.250565935911      0.965869517584      2.535817665383
H             5.738506616298      3.044416216089      5.452897660111
H             4.319039347053      4.455754288406      3.984387869959
C             5.417232437046      0.113574226938       5.52587537438
C             4.810757665143     -1.053002010651      5.119106242886
H             4.980555823176      -2.08290090948      5.402263691701
N             3.847774094682     -0.726064649793      4.201284441011
H             3.241891910153     -1.384211615212      3.731588055161
H             2.595388466607       3.43063786148      2.542609834171
H             6.219846518875      0.189208679473      6.247400393864
