25
-0.0678645336369812
C             0.697092438124      1.206228481101                   0
H             1.238751481843      2.142336379831      0.004928675883
C             1.394066202537                   0                   0
H             2.475325479251      0.000114333064      0.010977564436
C             0.696663336265       -1.2063436648     -0.001377484826
H             1.238021589736     -2.142768045099      0.001261014205
C             -0.69694068372     -1.206903024974     -0.000507818264
H            -1.237799125947      -2.14373787832      -0.00169760104
C            -1.394117326826      0.000170803848      0.001981006868
H            -2.475865900014      0.000265443726      0.001461018677
C             -0.69676396638      1.206847404824      -9.5703779e-05
H            -1.237425243665      2.143795338383     -0.000181194041
C             8.461152761108             -0.8118       2.56588920472
C              9.15888577381             -0.8273      3.773398232838
C             9.514232183971               0.374      4.388076269525
C              9.17143577381              1.5904      3.795135470473
C             8.473016158567              1.6082      2.586637211871
C             8.123852761108               0.404      1.981668467327
H             8.181592953486             -1.7432      2.082277414166
H              9.42480897889              -1.775      4.233590734949
H             9.449199171269              2.5246      4.276435787356
H             8.213069748406               2.561      2.137196822226
O              7.44253577381               0.374      0.800592829267
H             7.282409683046               1.288      0.514646304447
H            10.058201799213              0.3618      5.329059280898
