24
-0.519685258069782
C             0.697092438124      1.206228481101                   0
H             1.238751481843      2.142336379831      0.004928675883
C             1.394066202537                   0                   0
H             2.475325479251      0.000114333064      0.010977564436
C             0.696663336265       -1.2063436648     -0.001377484826
H             1.238021589736     -2.142768045099      0.001261014205
C             -0.69694068372     -1.206903024974     -0.000507818264
H            -1.237799125947      -2.14373787832      -0.00169760104
C            -1.394117326826      0.000170803848      0.001981006868
H            -2.475865900014      0.000265443726      0.001461018677
C             -0.69676396638      1.206847404824      -9.5703779e-05
H            -1.237425243665      2.143795338383     -0.000181194041
C             4.477042660038      3.308951991638                 5.0
H             4.847919255067      4.324896413822      5.004928675883
C             5.372887204471      2.242077055618                 5.0
H             6.437699869467      2.429948354692      5.010977564436
C             4.895558833826      0.932957724898      4.998622515174
H             5.591301026163       0.10476560925      5.001261014205
C              3.52322392219      0.690410064202      4.999492181736
H             3.153262000061     -0.326111245534       4.99830239896
C             2.627032788156      1.758082275697      5.001981006868
H             1.561701972428      1.570331809354      5.001461018677
C              3.10425459132      3.067520887947      4.999904296221
H             2.409107872465       3.89634963155      4.999818805959
