24
-0.328555680289264
C             0.697092438124      1.206228481101                   0
H             1.238751481843      2.142336379831      0.004928675883
C             1.394066202537                   0                   0
H             2.475325479251      0.000114333064      0.010977564436
C             0.696663336265       -1.2063436648     -0.001377484826
H             1.238021589736     -2.142768045099      0.001261014205
C             -0.69694068372     -1.206903024974     -0.000507818264
H            -1.237799125947      -2.14373787832      -0.00169760104
C            -1.394117326826      0.000170803848      0.001981006868
H            -2.475865900014      0.000265443726      0.001461018677
C             -0.69676396638      1.206847404824      -9.5703779e-05
H            -1.237425243665      2.143795338383     -0.000181194041
C             6.500585519651                 2.0      4.893170726464
H             6.501622062336      1.995071324117      5.974693469307
C             7.707296745954                 2.0      4.197033101268
H             8.643637581134      1.989022435564      4.737761754963
C             7.706499979491      2.001377484826      2.803607408721
H             8.643542169694      1.998738985795      2.263319233395
C             6.499883175455      2.000507818264      2.106320978608
H             6.499903451308       2.00169760104      1.024568975346
C             5.292573577189      1.998018993132      2.803089257058
H             4.355704512361      1.998538981323      2.262296931003
C             5.293161002261      2.000095703779      4.196778527879
H              4.35646063451      2.000181194041      4.737868601722
