28
-0.0330283715111039
C             0.697092438124      1.206228481101                   0
H             1.238751481843      2.142336379831      0.004928675883
C             1.394066202537                   0                   0
H             2.475325479251      0.000114333064      0.010977564436
C             0.696663336265       -1.2063436648     -0.001377484826
H             1.238021589736     -2.142768045099      0.001261014205
C             -0.69694068372     -1.206903024974     -0.000507818264
H            -1.237799125947      -2.14373787832      -0.00169760104
C            -1.394117326826      0.000170803848      0.001981006868
H            -2.475865900014      0.000265443726      0.001461018677
C             -0.69676396638      1.206847404824      -9.5703779e-05
H            -1.237425243665      2.143795338383     -0.000181194041
C             6.777055372185      1.603687655321      6.129158011573
C             7.095069796844      2.185023959141      4.896006992407
C             7.318436005648      3.553827493035      4.744146798271
C             7.220547697332      4.386182060785       5.87570147231
C             6.903414608584      3.821088661167      7.116537984961
C             6.685476519407      2.450190170551      7.238448740478
H             6.606697934494       0.53684966195      6.227989485927
H             7.388992974606      5.455211211645      5.788471113049
H             6.826959825251      4.460396403881      7.992500542045
C             7.612830618699      3.780434859865      3.371158867805
C             7.563795603302      2.566154461468      2.725177773086
H             7.724118068229      2.301164402551      1.688945041981
N             7.250430391961      1.609956965766      3.654753401227
H             7.146602482014      0.623087343554      3.464560187965
H             6.440168859863      2.030791827278      8.211530908298
H             7.836382574124      4.732642145673      2.908736878081
