25
-0.365120127745619
C             0.697092438124      1.206228481101                   0
H             1.238751481843      2.142336379831      0.004928675883
C             1.394066202537                   0                   0
H             2.475325479251      0.000114333064      0.010977564436
C             0.696663336265       -1.2063436648     -0.001377484826
H             1.238021589736     -2.142768045099      0.001261014205
C             -0.69694068372     -1.206903024974     -0.000507818264
H            -1.237799125947      -2.14373787832      -0.00169760104
C            -1.394117326826      0.000170803848      0.001981006868
H            -2.475865900014      0.000265443726      0.001461018677
C             -0.69676396638      1.206847404824      -9.5703779e-05
H            -1.237425243665      2.143795338383     -0.000181194041
C             3.015347363468     -2.324764826577      8.525782413288
C             3.623534890229     -1.640888220335      9.578194110168
C             3.630995318733     -0.245531902769      9.590315951385
C             3.029978509046      0.465451398394      8.550124300803
C             2.420609764503     -0.217033349418      7.495866674709
C             2.419286994771     -1.609151140656      7.493375570328
H              3.00605666057     -3.410680887661      8.510290443831
H             4.090779346365     -2.195870495502     10.387085247751
H             3.036967064947       1.55234233061      8.562428834695
H             1.957243159519      0.348515655308      6.694092172346
O             1.836807188443     -2.316881902769      6.483490951385
H             1.470132835269      -1.68918468371      5.839792341855
H             4.105206439662      0.287352587305     10.410473706348
