28
-1.41963092996206
C             0.697092438124      1.206228481101                   0
H             1.238751481843      2.142336379831      0.004928675883
C             1.394066202537                   0                   0
H             2.475325479251      0.000114333064      0.010977564436
C             0.696663336265       -1.2063436648     -0.001377484826
H             1.238021589736     -2.142768045099      0.001261014205
C             -0.69694068372     -1.206903024974     -0.000507818264
H            -1.237799125947      -2.14373787832      -0.00169760104
C            -1.394117326826      0.000170803848      0.001981006868
H            -2.475865900014      0.000265443726      0.001461018677
C             -0.69676396638      1.206847404824      -9.5703779e-05
H            -1.237425243665      2.143795338383     -0.000181194041
C             1.742345282888     -1.396312344679      5.000381805217
C             2.634329362996     -0.814976040859      4.091448908246
C             2.903700271235      0.553827493035      4.071617226703
C             2.253149172481      1.386182060785      5.002628166033
C             1.358085604919      0.821088661167      5.918657563559
C             1.108390305481     -0.549809829449      5.915266330242
H             1.545395676947      -2.46315033805      5.000793653856
H             2.442642241378      2.455211211645      5.011307097569
H              0.85389254177      1.460396403881      6.639035999091
C             3.845147450108      0.780434859865      3.029772106355
C             4.125672428459     -0.433845538532      2.445818560266
H             4.782632121435     -0.698835597449      1.628575923359
N             3.389502380704     -1.390043034234      3.094172063304
H             3.394681379699     -2.376912656446      2.877545954018
H             0.409406556663     -0.969208172722      6.635326377772
H             4.269960117434      1.732642145673      2.741078893698
