25
-0.000446347189745609
C             0.697092438124      1.206228481101                   0
H             1.238751481843      2.142336379831      0.004928675883
C             1.394066202537                   0                   0
H             2.475325479251      0.000114333064      0.010977564436
C             0.696663336265       -1.2063436648     -0.001377484826
H             1.238021589736     -2.142768045099      0.001261014205
C             -0.69694068372     -1.206903024974     -0.000507818264
H            -1.237799125947      -2.14373787832      -0.00169760104
C            -1.394117326826      0.000170803848      0.001981006868
H            -2.475865900014      0.000265443726      0.001461018677
C             -0.69676396638      1.206847404824      -9.5703779e-05
H            -1.237425243665      2.143795338383     -0.000181194041
C                     7.2504       2.59698920472      6.324764826577
C                     7.2509      3.812498232838      5.640888220335
C                     7.2513      3.826726269525      4.245531902769
C                     7.2509      2.625385470473      3.534548601606
C                     7.2503      1.407687211871      4.217033349418
C                     7.2504      1.404868467327      5.609151140656
H                     7.2501      2.578927414166      7.410680887661
H                     7.2511      4.746640734949      6.195870495502
H                     7.2508      2.639535787356       2.44765766939
H                     7.2499      0.481646822226      3.651484344692
O                     7.2509      0.239042829267      6.316881902769
H                     7.2552     -0.501753695553       5.68918468371
H                     7.2519      4.774109280898      3.712647412695
