25
-0.169690419016067
C             0.697092438124      1.206228481101                   0
H             1.238751481843      2.142336379831      0.004928675883
C             1.394066202537                   0                   0
H             2.475325479251      0.000114333064      0.010977564436
C             0.696663336265       -1.2063436648     -0.001377484826
H             1.238021589736     -2.142768045099      0.001261014205
C             -0.69694068372     -1.206903024974     -0.000507818264
H            -1.237799125947      -2.14373787832      -0.00169760104
C            -1.394117326826      0.000170803848      0.001981006868
H            -2.475865900014      0.000265443726      0.001461018677
C             -0.69676396638      1.206847404824      -9.5703779e-05
H            -1.237425243665      2.143795338383     -0.000181194041
C             2.623535174396      -2.21481079528       9.57919460236
C             2.979329883977     -1.014801767162     10.194449116419
C             2.636998135356      0.200726269525      9.600713134762
C             1.938710074612      0.215785470473      8.392042735236
C             1.581532833276     -0.984112788129      7.774593605935
C             1.928428331435     -2.191131532673      8.375234233664
H             2.886933397317     -3.164272585834     10.036013707083
H             3.522744226641     -1.028359265051     11.135270367475
H             1.673028005964      1.164135787356      7.932067893678
H             1.038811920752     -0.957353177774      6.835373411113
O             1.600976725194     -3.386957170733      7.807071414634
H             1.127002024901     -3.213753695553      6.977523152223
H             2.914525505561      1.135909280898     10.080204640449
