24
-0.428830237966312
C             0.697092438124      1.206228481101                   0
H             1.238751481843      2.142336379831      0.004928675883
C             1.394066202537                   0                   0
H             2.475325479251      0.000114333064      0.010977564436
C             0.696663336265       -1.2063436648     -0.001377484826
H             1.238021589736     -2.142768045099      0.001261014205
C             -0.69694068372     -1.206903024974     -0.000507818264
H            -1.237799125947      -2.14373787832      -0.00169760104
C            -1.394117326826      0.000170803848      0.001981006868
H            -2.475865900014      0.000265443726      0.001461018677
C             -0.69676396638      1.206847404824      -9.5703779e-05
H            -1.237425243665      2.143795338383     -0.000181194041
C             5.742498182121      3.351061359051      4.738228570193
H             5.931323430794      4.398939085979      4.928002394587
C             6.809993723411      2.469555078443      4.582795229258
H             7.826005982685      2.831948820768      4.657841934732
C             6.567243229395      1.118521764539      4.343172869431
H             7.396229586147      0.433823448503        4.2251212848
C             5.257875127965      0.648453703121      4.261170270004
H             5.070050831728     -0.400476349767      4.075007463711
C             4.189899817115      1.530241768145      4.419180516406
H               3.1733562966      1.166060666948      4.354437552554
C             4.432489919993        2.8821663267      4.655452544706
H             3.603979440859      3.567140580651      4.776145177681
