24
-0.871143887318366
C             0.697092438124      1.206228481101                   0
H             1.238751481843      2.142336379831      0.004928675883
C             1.394066202537                   0                   0
H             2.475325479251      0.000114333064      0.010977564436
C             0.696663336265       -1.2063436648     -0.001377484826
H             1.238021589736     -2.142768045099      0.001261014205
C             -0.69694068372     -1.206903024974     -0.000507818264
H            -1.237799125947      -2.14373787832      -0.00169760104
C            -1.394117326826      0.000170803848      0.001981006868
H            -2.475865900014      0.000265443726      0.001461018677
C             -0.69676396638      1.206847404824      -9.5703779e-05
H            -1.237425243665      2.143795338383     -0.000181194041
C             5.242498182121      0.969218685831      5.789167744106
H             5.431323430794      1.328808596396      6.791543387883
C             6.309993723411      0.663074767372      4.948044241037
H             7.326005982685      0.779279285124        5.2994097808
C             6.067243229395      0.195077161345      3.658203889923
H             6.896229586147     -0.045036325425      3.006211961992
C             4.757875127965      0.031059464916      3.210111707514
H             4.570050831728     -0.332183842038      2.208630231774
C             3.689899817115      0.335112609985       4.05276769578
H               2.6733562966      0.209091110799      3.705006128639
C             3.932489919993      0.806457310552      5.341704721638
H             3.103979440859      1.044421551321      5.995256142985
