28
-0.998416768727993
C             0.697092438124      1.206228481101                   0
H             1.238751481843      2.142336379831      0.004928675883
C             1.394066202537                   0                   0
H             2.475325479251      0.000114333064      0.010977564436
C             0.696663336265       -1.2063436648     -0.001377484826
H             1.238021589736     -2.142768045099      0.001261014205
C             -0.69694068372     -1.206903024974     -0.000507818264
H            -1.237799125947      -2.14373787832      -0.00169760104
C            -1.394117326826      0.000170803848      0.001981006868
H            -2.475865900014      0.000265443726      0.001461018677
C             -0.69676396638      1.206847404824      -9.5703779e-05
H            -1.237425243665      2.143795338383     -0.000181194041
C             2.999618194783     -0.396312344679      3.742345282888
C             3.908551091754      0.185023959141      4.634329362996
C             3.928382773297      1.553827493035      4.903700271235
C             2.997371833967      2.386182060785      4.253149172481
C             2.081342436441      1.821088661167      3.358085604919
C             2.084733669758      0.450190170551      3.108390305481
H             2.999206346144      -1.46315033805      3.545395676947
H             2.988692902431      3.455211211645      4.442642241378
H             1.360964000909      2.460396403881       2.85389254177
C             4.970227893645      1.780434859865      5.845147450108
C             5.554181439734      0.566154461468      6.125672428459
H             6.371424076641      0.301164402551      6.782632121435
N             4.905827936696     -0.390043034234      5.389502380704
H             5.122454045982     -1.376912656446      5.394681379699
H             1.364673622228      0.030791827278      2.409406556663
H             5.258921106302      2.732642145673      6.269960117434
