25
-0.108193156537717
C             0.697092438124      1.206228481101                   0
H             1.238751481843      2.142336379831      0.004928675883
C             1.394066202537                   0                   0
H             2.475325479251      0.000114333064      0.010977564436
C             0.696663336265       -1.2063436648     -0.001377484826
H             1.238021589736     -2.142768045099      0.001261014205
C             -0.69694068372     -1.206903024974     -0.000507818264
H            -1.237799125947      -2.14373787832      -0.00169760104
C            -1.394117326826      0.000170803848      0.001981006868
H            -2.475865900014      0.000265443726      0.001461018677
C             -0.69676396638      1.206847404824      -9.5703779e-05
H            -1.237425243665      2.143795338383     -0.000181194041
C             5.810170347819       4.21481079528       3.17040539764
C             5.455241663642      3.014801767162      2.554650883581
C             5.798266232587      1.799273730475      3.147986865238
C             6.495861473007      1.784214529527      4.357057264764
C             6.851999483858      2.984112788129      4.975106394065
C              6.50527719078      4.191131532673      4.374365766336
H             5.546252509656      5.164272585834      2.713886292917
H             4.912173731139      3.028359265051      1.613629632525
H             6.761370336574      0.835864212644      4.817132106322
H             7.394027576059      2.957353177774      5.914726588887
O             6.833594822425      5.386957170733      4.942028585366
H             7.315017341191      5.213753695553      5.767276847777
H             5.521778092866      0.864090719102      2.667895359551
