24
-0.0697923667523365
C             0.697092438124      1.206228481101                   0
H             1.238751481843      2.142336379831      0.004928675883
C             1.394066202537                   0                   0
H             2.475325479251      0.000114333064      0.010977564436
C             0.696663336265       -1.2063436648     -0.001377484826
H             1.238021589736     -2.142768045099      0.001261014205
C             -0.69694068372     -1.206903024974     -0.000507818264
H            -1.237799125947      -2.14373787832      -0.00169760104
C            -1.394117326826      0.000170803848      0.001981006868
H            -2.475865900014      0.000265443726      0.001461018677
C             -0.69676396638      1.206847404824      -9.5703779e-05
H            -1.237425243665      2.143795338383     -0.000181194041
C             3.697092438124      1.133484002672       7.41255443799
H             4.238751481843      2.011451980936      7.737353636039
C             4.394066202537                 0.0                 7.0
H             5.475325479251     -0.003647110225      7.010354640506
C             3.696663336265     -1.133121112387      6.586111754539
H             4.238021589736     -2.013974612295      6.268315131845
C              2.30305931628     -1.133944182497      6.586737661343
H             1.762200874053     -2.013874051406      6.265203240434
C             1.605882673174     -0.000517041137      7.001919955892
H             0.524134099986     -0.000250262307      7.001463695571
C              2.30323603362      1.134098333348      7.412676190235
H             1.762574756335      2.014570631966      7.733050922191
