24
-0.945110632183438
C             0.697092438124      1.206228481101                   0
H             1.238751481843      2.142336379831      0.004928675883
C             1.394066202537                   0                   0
H             2.475325479251      0.000114333064      0.010977564436
C             0.696663336265       -1.2063436648     -0.001377484826
H             1.238021589736     -2.142768045099      0.001261014205
C             -0.69694068372     -1.206903024974     -0.000507818264
H            -1.237799125947      -2.14373787832      -0.00169760104
C            -1.394117326826      0.000170803848      0.001981006868
H            -2.475865900014      0.000265443726      0.001461018677
C             -0.69676396638      1.206847404824      -9.5703779e-05
H            -1.237425243665      2.143795338383     -0.000181194041
C             3.000585519651                 1.5      6.893170726464
H             3.001622062336      1.495071324117      7.974693469307
C             4.207296745954                 1.5      6.197033101268
H             5.143637581134      1.489022435564      6.737761754963
C             4.206499979491      1.501377484826      4.803607408721
H             5.143542169694      1.498738985795      4.263319233395
C             2.999883175455      1.500507818264      4.106320978608
H             2.999903451308       1.50169760104      3.024568975346
C             1.792573577189      1.498018993132      4.803089257058
H             0.855704512361      1.498538981323      4.262296931003
C             1.793161002261      1.500095703779      6.196778527879
H              0.85646063451      1.500181194041      6.737868601722
