24
-1.77537676347543
C             0.697092438124      1.206228481101                   0
H             1.238751481843      2.142336379831      0.004928675883
C             1.394066202537                   0                   0
H             2.475325479251      0.000114333064      0.010977564436
C             0.696663336265       -1.2063436648     -0.001377484826
H             1.238021589736     -2.142768045099      0.001261014205
C             -0.69694068372     -1.206903024974     -0.000507818264
H            -1.237799125947      -2.14373787832      -0.00169760104
C            -1.394117326826      0.000170803848      0.001981006868
H            -2.475865900014      0.000265443726      0.001461018677
C             -0.69676396638      1.206847404824      -9.5703779e-05
H            -1.237425243665      2.143795338383     -0.000181194041
C             3.697092438124      0.209459377593      6.187903160092
H             4.238751481843      0.367159010086      7.110645332003
C             4.394066202537                 0.0                 5.0
H             5.475325479251     -0.010790936838      5.002018830147
C             3.696663336265     -0.208122821296      3.811744208378
H             4.238021589736      -0.37332962276      2.890004389098
C              2.30305931628     -0.209076407544      3.811344362156
H             1.762200874053       -0.3705843653      2.888535531678
C             1.605882673174     -0.001921251145      5.000512207186
H             0.524134099986     -0.001392728701       5.00051511427
C              2.30323603362      0.209661102393      6.188496062187
H             1.762574756335      0.372444595097      7.111194806096
