28
-1.05034596226804
C             0.697092438124      1.206228481101                   0
H             1.238751481843      2.142336379831      0.004928675883
C             1.394066202537                   0                   0
H             2.475325479251      0.000114333064      0.010977564436
C             0.696663336265       -1.2063436648     -0.001377484826
H             1.238021589736     -2.142768045099      0.001261014205
C             -0.69694068372     -1.206903024974     -0.000507818264
H            -1.237799125947      -2.14373787832      -0.00169760104
C            -1.394117326826      0.000170803848      0.001981006868
H            -2.475865900014      0.000265443726      0.001461018677
C             -0.69676396638      1.206847404824      -9.5703779e-05
H            -1.237425243665      2.143795338383     -0.000181194041
C             4.513773262067      2.273820967896      3.396280158468
C             4.400545853897      1.153793451063      4.228424631547
C             4.870430155569     -0.107555279147      3.861293564979
C             5.483722582516     -0.262618142755      2.603263304978
C             5.605101892324      0.847185353151      1.758761995906
C             5.126426253627      2.095373649792      2.151976344122
H             4.142325178703      3.247145509055      3.698932235848
H             5.859085905947     -1.232039724416      2.290005512046
H             6.078019956995      0.731509885666      0.786734313414
C             4.587513997479      -0.99029698074      4.940107951175
C             3.961760309676      -0.26168985577       5.92587510068
H             3.585654187686      -0.55031809855      6.897954942859
N             3.853846756421      1.031189280614       5.48605643506
H             3.434855666076      1.790746837041      6.004114471563
H             5.230490941552      2.945124353282      1.481115698274
H              4.81893289621      -2.04614367478      4.986382571591
