24
-0.633077075615267
C             0.697092438124      1.206228481101                   0
H             1.238751481843      2.142336379831      0.004928675883
C             1.394066202537                   0                   0
H             2.475325479251      0.000114333064      0.010977564436
C             0.696663336265       -1.2063436648     -0.001377484826
H             1.238021589736     -2.142768045099      0.001261014205
C             -0.69694068372     -1.206903024974     -0.000507818264
H            -1.237799125947      -2.14373787832      -0.00169760104
C            -1.394117326826      0.000170803848      0.001981006868
H            -2.475865900014      0.000265443726      0.001461018677
C             -0.69676396638      1.206847404824      -9.5703779e-05
H            -1.237425243665      2.143795338383     -0.000181194041
C             6.000585519651      1.241921557829      5.372005332691
H             6.001622062336      1.424872213008      6.437953170487
C             7.207296745954      1.121038527809      4.686443602235
H             8.143637581134      1.204124282569       5.22086360673
C             7.206499979491       0.88042925332      3.313947979239
H             8.143542169694      0.784010781958      2.782326165865
C             5.999883175455      0.758490281046      2.627405912807
H             5.999903451308      0.571817724294      1.561881549547
C             4.792573577189      0.877031808569      3.314020895426
H             3.855704512361      0.783636295055      2.781354124956
C             4.793161002261      1.121088571427      4.686176277601
H              3.85646063451      1.215132068176      5.219031132171
