25
-0.0303989205192231
C             0.697092438124      1.206228481101                   0
H             1.238751481843      2.142336379831      0.004928675883
C             1.394066202537                   0                   0
H             2.475325479251      0.000114333064      0.010977564436
C             0.696663336265       -1.2063436648     -0.001377484826
H             1.238021589736     -2.142768045099      0.001261014205
C             -0.69694068372     -1.206903024974     -0.000507818264
H            -1.237799125947      -2.14373787832      -0.00169760104
C            -1.394117326826      0.000170803848      0.001981006868
H            -2.475865900014      0.000265443726      0.001461018677
C             -0.69676396638      1.206847404824      -9.5703779e-05
H            -1.237425243665      2.143795338383     -0.000181194041
C                     4.8118             -1.5114              7.7496
C                     4.8273             -0.1168              7.7491
C                      3.626              0.5932              7.7487
C                     2.4096             -0.0917              7.7491
C                     2.3918             -1.4875              7.7497
C                      3.596              -2.186              7.7496
H                     5.7432               -2.07              7.7499
H                      5.775              0.4147              7.7489
H                     1.4754               0.464              7.7492
H                      1.439             -2.0067              7.7501
O                      3.626             -3.5495              7.7491
H                      2.712             -3.8772              7.7448
H                     3.6382              1.6801              7.7481
