25
-0.489880463116458
C             0.697092438124      1.206228481101                   0
H             1.238751481843      2.142336379831      0.004928675883
C             1.394066202537                   0                   0
H             2.475325479251      0.000114333064      0.010977564436
C             0.696663336265       -1.2063436648     -0.001377484826
H             1.238021589736     -2.142768045099      0.001261014205
C             -0.69694068372     -1.206903024974     -0.000507818264
H            -1.237799125947      -2.14373787832      -0.00169760104
C            -1.394117326826      0.000170803848      0.001981006868
H            -2.475865900014      0.000265443726      0.001461018677
C             -0.69676396638      1.206847404824      -9.5703779e-05
H            -1.237425243665      2.143795338383     -0.000181194041
C             6.689047238892              0.4886      2.305735173423
C              6.69636422619              1.8832      2.292061779665
C             6.095367816029              2.5932      3.332218097231
C              5.48751422619              1.9083      4.385851398394
C             5.479133841433              0.5125      4.401566650582
C             6.081147238892              -0.186      3.358648859344
H             7.155007046514               -0.07      1.499269112339
H              7.17004102111              2.4147      1.471229504498
H             5.020500828731               2.464       5.19494233061
H             5.003080251594             -0.0067      5.226915655308
O              6.09571422619             -1.5495      3.332418097231
H             5.634990316954             -1.8772       4.12181531629
H             6.100948200787              3.6801      3.321352587305
