28
-1.29835107326345
C             0.697092438124      1.206228481101                   0
H             1.238751481843      2.142336379831      0.004928675883
C             1.394066202537                   0                   0
H             2.475325479251      0.000114333064      0.010977564436
C             0.696663336265       -1.2063436648     -0.001377484826
H             1.238021589736     -2.142768045099      0.001261014205
C             -0.69694068372     -1.206903024974     -0.000507818264
H            -1.237799125947      -2.14373787832      -0.00169760104
C            -1.394117326826      0.000170803848      0.001981006868
H            -2.475865900014      0.000265443726      0.001461018677
C             -0.69676396638      1.206847404824      -9.5703779e-05
H            -1.237425243665      2.143795338383     -0.000181194041
C            -0.222944627815      0.810010291464      7.144662956323
C             0.095069796844     -0.548597969746      7.257786458656
C             0.318436005648     -1.364514522639      6.148297922582
C             0.220547697332     -0.800736713025      4.861680384935
C            -0.096585391416      0.556405928683       4.73064736819
C            -0.314523480593      1.347432985263      5.856924909314
H            -0.393302065506      1.429019855634      8.019156023128
H             0.388992974606     -1.410794995556      3.979489162535
H            -0.173040174749      0.995357884525      3.739009343621
C             0.612830618699     -2.666860632927      6.638544151455
C             0.563795603302     -2.619156472119      8.013132371144
H             0.724118068229     -3.384065312031      8.760736859469
N             0.250430391961     -1.336021615559      8.376435879387
H             0.146602482014     -1.007298958766      9.326186649076
H            -0.559831140137      2.399846034202      5.733593444984
H             0.836382574124       -3.5434334662      6.045119447139
