25
-0.18406859548203
C             0.697092438124      1.206228481101                   0
H             1.238751481843      2.142336379831      0.004928675883
C             1.394066202537                   0                   0
H             2.475325479251      0.000114333064      0.010977564436
C             0.696663336265       -1.2063436648     -0.001377484826
H             1.238021589736     -2.142768045099      0.001261014205
C             -0.69694068372     -1.206903024974     -0.000507818264
H            -1.237799125947      -2.14373787832      -0.00169760104
C            -1.394117326826      0.000170803848      0.001981006868
H            -2.475865900014      0.000265443726      0.001461018677
C             -0.69676396638      1.206847404824      -9.5703779e-05
H            -1.237425243665      2.143795338383     -0.000181194041
C                     3.7496      4.324764826577       5.59698920472
C                     3.7491      3.640888220335      6.812498232838
C                     3.7487      2.245531902769      6.826726269525
C                     3.7491      1.534548601606      5.625385470473
C                     3.7497      2.217033349418      4.407687211871
C                     3.7496      3.609151140656      4.404868467327
H                     3.7499      5.410680887661      5.578927414166
H                     3.7489      4.195870495502      7.746640734949
H                     3.7492       0.44765766939      5.639535787356
H                     3.7501      1.651484344692      3.481646822226
O                     3.7491      4.316881902769      3.239042829267
H                     3.7448       3.68918468371      2.498246304447
H                     3.7481      1.712647412695      7.774109280898
