28
-0.0456017065734657
C             0.697092438124      1.206228481101                   0
H             1.238751481843      2.142336379831      0.004928675883
C             1.394066202537                   0                   0
H             2.475325479251      0.000114333064      0.010977564436
C             0.696663336265       -1.2063436648     -0.001377484826
H             1.238021589736     -2.142768045099      0.001261014205
C             -0.69694068372     -1.206903024974     -0.000507818264
H            -1.237799125947      -2.14373787832      -0.00169760104
C            -1.394117326826      0.000170803848      0.001981006868
H            -2.475865900014      0.000265443726      0.001461018677
C             -0.69676396638      1.206847404824      -9.5703779e-05
H            -1.237425243665      2.143795338383     -0.000181194041
C             7.777055372185      5.273820967896      3.586302053215
C             8.095069796844      4.153793451063      4.363574010605
C             8.318436005648      2.892444720853      3.810687029604
C             8.220547697332      2.737381857245       2.41455465224
C             7.903414608584      3.847185353151       1.62250541015
C             7.685476519407      5.095373649792      2.202376844186
H             7.606697934494      6.247145509055      4.034130482416
H             8.388992974606      1.767960275584      1.955583783911
H             7.826959825251      3.731509885666      0.544245711594
C             8.612830618699       2.00970301926      4.886425773062
C             8.563795603302       2.73831014423      6.053002010651
H             8.724118068229       2.44968190145       7.08290090948
N             8.250430391961      4.031189280614      5.726064649793
H             8.146602482014      4.790746837041      6.384211615212
H             7.440168859863      5.945124353282       1.56936213852
H             8.836382574124       0.95385632522      4.810791320527
