25
-0.295117294446122
C             0.697092438124      1.206228481101                   0
H             1.238751481843      2.142336379831      0.004928675883
C             1.394066202537                   0                   0
H             2.475325479251      0.000114333064      0.010977564436
C             0.696663336265       -1.2063436648     -0.001377484826
H             1.238021589736     -2.142768045099      0.001261014205
C             -0.69694068372     -1.206903024974     -0.000507818264
H            -1.237799125947      -2.14373787832      -0.00169760104
C            -1.394117326826      0.000170803848      0.001981006868
H            -2.475865900014      0.000265443726      0.001461018677
C             -0.69676396638      1.206847404824      -9.5703779e-05
H            -1.237425243665      2.143795338383     -0.000181194041
C             3.984652636532      4.324764826577      4.525782413288
C             3.376465109771      3.640888220335      5.578194110168
C             3.369004681267      2.245531902769      5.590315951385
C             3.970021490954      1.534548601606      4.550124300803
C             4.579390235497      2.217033349418      3.495866674709
C             4.580713005229      3.609151140656      3.493375570328
H              3.99394333943      5.410680887661      4.510290443831
H             2.909220653635      4.195870495502      6.387085247751
H             3.963032935053       0.44765766939      4.562428834695
H             5.042756840481      1.651484344692      2.694092172346
O             5.163192811557      4.316881902769      2.483490951385
H             5.529867164731       3.68918468371      1.839792341855
H             2.894793560338      1.712647412695      6.410473706348
