25
-0.145999256033607
C             0.697092438124      1.206228481101                   0
H             1.238751481843      2.142336379831      0.004928675883
C             1.394066202537                   0                   0
H             2.475325479251      0.000114333064      0.010977564436
C             0.696663336265       -1.2063436648     -0.001377484826
H             1.238021589736     -2.142768045099      0.001261014205
C             -0.69694068372     -1.206903024974     -0.000507818264
H            -1.237799125947      -2.14373787832      -0.00169760104
C            -1.394117326826      0.000170803848      0.001981006868
H            -2.475865900014      0.000265443726      0.001461018677
C             -0.69676396638      1.206847404824      -9.5703779e-05
H            -1.237425243665      2.143795338383     -0.000181194041
C             6.207117586712      3.186635173423      2.675741841252
C             7.246605889832      2.475911779665      3.275313342609
C             8.299484048615      3.161268097231      3.882730950791
C             8.312325699197      4.557151398394      3.890606961427
C             7.272883325291      5.270466650582      3.291177447368
C             6.227624429672      4.576848859344      2.687581472556
H             5.384709556169      2.659319112339      2.201270753597
H             7.234964752249      1.389429504498      3.268361388584
H             9.133571165305       5.08834233061      4.364868722409
H             7.295857827654      6.355215655308      3.304903662707
O             5.192259048615      5.232618097231      2.089235640824
H             5.344407658145       6.18801531629      2.172113469178
H             9.109676293652      2.607252587305      4.349802841236
