25
-1.02662869487335
C             0.697092438124      1.206228481101                   0
H             1.238751481843      2.142336379831      0.004928675883
C             1.394066202537                   0                   0
H             2.475325479251      0.000114333064      0.010977564436
C             0.696663336265       -1.2063436648     -0.001377484826
H             1.238021589736     -2.142768045099      0.001261014205
C             -0.69694068372     -1.206903024974     -0.000507818264
H            -1.237799125947      -2.14373787832      -0.00169760104
C            -1.394117326826      0.000170803848      0.001981006868
H            -2.475865900014      0.000265443726      0.001461018677
C             -0.69676396638      1.206847404824      -9.5703779e-05
H            -1.237425243665      2.143795338383     -0.000181194041
C             3.310952761108              3.5114      3.305735173423
C              3.30363577381              2.1168      3.292061779665
C             3.904632183971              1.4068      4.332218097231
C              4.51248577381              2.0917      5.385851398394
C             4.520866158567              3.4875      5.401566650582
C             3.918852761108               4.186      4.358648859344
H             2.844992953486                4.07      2.499269112339
H              2.82995897889              1.5853      2.471229504498
H             4.979499171269               1.536       6.19494233061
H             4.996919748406              4.0067      6.226915655308
O              3.90428577381              5.5495      4.332418097231
H             4.365009683046              5.8772       5.12181531629
H             3.899051799213              0.3199      4.321352587305
