28
-0.19003181350974
C             0.697092438124      1.206228481101                   0
H             1.238751481843      2.142336379831      0.004928675883
C             1.394066202537                   0                   0
H             2.475325479251      0.000114333064      0.010977564436
C             0.696663336265       -1.2063436648     -0.001377484826
H             1.238021589736     -2.142768045099      0.001261014205
C             -0.69694068372     -1.206903024974     -0.000507818264
H            -1.237799125947      -2.14373787832      -0.00169760104
C            -1.394117326826      0.000170803848      0.001981006868
H            -2.475865900014      0.000265443726      0.001461018677
C             -0.69676396638      1.206847404824      -9.5703779e-05
H            -1.237425243665      2.143795338383     -0.000181194041
C             5.222944627815     -0.129158011573      6.396312344679
C             4.904930203156      1.103993007593      5.814976040859
C             4.681563994352      1.255853201729      4.446172506965
C             4.779452302668       0.12429852769      3.613817939215
C             5.096585391416     -1.116537984961      4.178911338833
C             5.314523480593     -1.238448740478      5.549809829449
H             5.393302065506     -0.227989485927       7.46315033805
H             4.611007025394      0.211528886951      2.544788788355
H             5.173040174749     -1.992500542045      3.539603596119
C             4.387169381301      2.628841132195      4.219565140135
C             4.436204396698      3.274822226914      5.433845538532
H             4.275881931771      4.311054958019      5.698835597449
N             4.749569608039      2.345246598773      6.390043034234
H             4.853397517986      2.535439812035      7.376912656446
H             5.559831140137     -2.211530908298      5.969208172722
H             4.163617425876      3.091263121919      3.267357854327
