24
-0.299076437000866
C             0.697092438124      1.206228481101                   0
H             1.238751481843      2.142336379831      0.004928675883
C             1.394066202537                   0                   0
H             2.475325479251      0.000114333064      0.010977564436
C             0.696663336265       -1.2063436648     -0.001377484826
H             1.238021589736     -2.142768045099      0.001261014205
C             -0.69694068372     -1.206903024974     -0.000507818264
H            -1.237799125947      -2.14373787832      -0.00169760104
C            -1.394117326826      0.000170803848      0.001981006868
H            -2.475865900014      0.000265443726      0.001461018677
C             -0.69676396638      1.206847404824      -9.5703779e-05
H            -1.237425243665      2.143795338383     -0.000181194041
C             3.500585519651      2.895512881149      7.567230693324
H             3.501622062336       3.58692671507      8.398893272375
C             4.707296745954      2.448044241037      7.033958333897
H             5.643637581134      2.787208617599      7.455236756699
C             4.706499979491      1.553422685445      5.965646895043
H             5.643542169694      1.204110933164      5.553458135137
C             3.499883175455      1.104549404529      5.432053510883
H             3.499903451308      0.410124046562      4.602618622325
C             2.292573577189      1.550516870077      5.967408764689
H             1.355704512361      1.203300597539      5.552803566467
C             2.293161002261      2.447953917764      7.033701802163
H              1.35646063451      2.795825402295      7.448145894376
