28
-0.573306027623988
C             0.697092438124      1.206228481101                   0
H             1.238751481843      2.142336379831      0.004928675883
C             1.394066202537                   0                   0
H             2.475325479251      0.000114333064      0.010977564436
C             0.696663336265       -1.2063436648     -0.001377484826
H             1.238021589736     -2.142768045099      0.001261014205
C             -0.69694068372     -1.206903024974     -0.000507818264
H            -1.237799125947      -2.14373787832      -0.00169760104
C            -1.394117326826      0.000170803848      0.001981006868
H            -2.475865900014      0.000265443726      0.001461018677
C             -0.69676396638      1.206847404824      -9.5703779e-05
H            -1.237425243665      2.143795338383     -0.000181194041
C             3.603719841532      1.273820967896      6.513773262067
C             2.771575368453      0.153793451063      6.400545853897
C             3.138706435021     -1.107555279147      6.870430155569
C             4.396736695022     -1.262618142755      7.483722582516
C             5.241238004094     -0.152814646849      7.605101892324
C             4.848023655878      1.095373649792      7.126426253627
H             3.301067764152      2.247145509055      6.142325178703
H             4.709994487954     -2.232039724416      7.859085905947
H             6.213265686586     -0.268490114334      8.078019956995
C             2.059892048825      -1.99029698074      6.587513997479
C              1.07412489932      -1.26168985577      5.961760309676
H             0.102045057141      -1.55031809855      5.585654187686
N              1.51394356494      0.031189280614      5.853846756421
H             0.995885528437      0.790746837041      5.434855666076
H             5.518884301726      1.945124353282      7.230490941552
H             2.013617428409      -3.04614367478       6.81893289621
