24
-1.36169848333685
C             0.697092438124      1.206228481101                   0
H             1.238751481843      2.142336379831      0.004928675883
C             1.394066202537                   0                   0
H             2.475325479251      0.000114333064      0.010977564436
C             0.696663336265       -1.2063436648     -0.001377484826
H             1.238021589736     -2.142768045099      0.001261014205
C             -0.69694068372     -1.206903024974     -0.000507818264
H            -1.237799125947      -2.14373787832      -0.00169760104
C            -1.394117326826      0.000170803848      0.001981006868
H            -2.475865900014      0.000265443726      0.001461018677
C             -0.69676396638      1.206847404824      -9.5703779e-05
H            -1.237425243665      2.143795338383     -0.000181194041
C             1.242498182121      0.238228570193      7.351061359051
H             1.431323430794      0.418294798144       8.40065079715
C             2.309993723411      0.082795229258      6.469555078443
H             3.326005982685      0.136220353601      6.835761288887
C             2.067243229395     -0.154114015096       5.11804336908
H             2.896229586147     -0.277362428332      4.434261394141
C             0.757875127965     -0.237829523269      4.648277339689
H             0.570050831728     -0.421648914957      3.598934079579
C            -0.310100182885     -0.084721305439       5.53092976461
H              -1.3266437034     -0.148440092487      5.166568073409
C            -0.067510080007      0.155641044353      6.882133089126
H            -0.896020559141      0.276502060273      7.567077652621
