28
-0.0563403308058138
C             0.697092438124      1.206228481101                   0
H             1.238751481843      2.142336379831      0.004928675883
C             1.394066202537                   0                   0
H             2.475325479251      0.000114333064      0.010977564436
C             0.696663336265       -1.2063436648     -0.001377484826
H             1.238021589736     -2.142768045099      0.001261014205
C             -0.69694068372     -1.206903024974     -0.000507818264
H            -1.237799125947      -2.14373787832      -0.00169760104
C            -1.394117326826      0.000170803848      0.001981006868
H            -2.475865900014      0.000265443726      0.001461018677
C             -0.69676396638      1.206847404824      -9.5703779e-05
H            -1.237425243665      2.143795338383     -0.000181194041
C             5.556165227377      2.413697946785      4.785366368021
C             5.840770415269      1.636425989395      5.914345862866
C             6.278003969203      2.189312970396      7.118389010661
C             6.440309162742       3.58544534776      7.203733235571
C             6.160052726025       4.37749458985      6.084048670534
C             5.724698499384      3.797623155814      4.894116852347
H             5.217036825562      1.965869517584      3.857263870405
H             6.779142064306      4.044416216089      8.127499590904
H             6.284102244375      5.455754288406      6.145999172304
C              6.46442160636      1.113574226938      8.030063055745
C             6.142583612883     -0.053002010651      7.374553268445
H             6.148054406849      -1.08290090948      7.704673891405
N             5.767526278375      0.273935350207      6.098204486643
H             5.477665107797     -0.384211615212      5.388494392167
H             5.512265812547       4.43063786148       4.03555732647
H             6.798743280916      1.189208679473      9.056229092999
