24
-0.321244635694893
C             0.697092438124      1.206228481101                   0
H             1.238751481843      2.142336379831      0.004928675883
C             1.394066202537                   0                   0
H             2.475325479251      0.000114333064      0.010977564436
C             0.696663336265       -1.2063436648     -0.001377484826
H             1.238021589736     -2.142768045099      0.001261014205
C             -0.69694068372     -1.206903024974     -0.000507818264
H            -1.237799125947      -2.14373787832      -0.00169760104
C            -1.394117326826      0.000170803848      0.001981006868
H            -2.475865900014      0.000265443726      0.001461018677
C             -0.69676396638      1.206847404824      -9.5703779e-05
H            -1.237425243665      2.143795338383     -0.000181194041
C             7.000585519651      2.476492451542      4.309152251153
H             7.001622062336      2.841763574702      5.327136898247
C             8.207296745954      2.238399361199      3.654996861706
H             9.143637581134      2.413023916541      4.166870135592
C             8.206499979491      1.763114118446      2.345133893248
H             9.143542169694      1.575845301214      1.838331501612
C             6.999883175455      1.523810894429      1.690196423779
H             6.999903451308      1.154947949326      0.673275119118
C             5.792573577189      1.759780950278      2.345795661764
H             4.855704512361      1.575307710477      1.837439257157
C             5.793161002261      2.238402224106       3.65472490835
H              4.85646063451      2.423546263283      4.163154018529
