28
-0.126839711947871
C             0.697092438124      1.206228481101                   0
H             1.238751481843      2.142336379831      0.004928675883
C             1.394066202537                   0                   0
H             2.475325479251      0.000114333064      0.010977564436
C             0.696663336265       -1.2063436648     -0.001377484826
H             1.238021589736     -2.142768045099      0.001261014205
C             -0.69694068372     -1.206903024974     -0.000507818264
H            -1.237799125947      -2.14373787832      -0.00169760104
C            -1.394117326826      0.000170803848      0.001981006868
H            -2.475865900014      0.000265443726      0.001461018677
C             -0.69676396638      1.206847404824      -9.5703779e-05
H            -1.237425243665      2.143795338383     -0.000181194041
C             7.222944627815      4.586302053215      4.273820967896
C             6.904930203156      5.363574010605      3.153793451063
C             6.681563994352      4.810687029604      1.892444720853
C             6.779452302668       3.41455465224      1.737381857245
C             7.096585391416       2.62250541015      2.847185353151
C             7.314523480593      3.202376844186      4.095373649792
H             7.393302065506      5.034130482416      5.247145509055
H             6.611007025394      2.955583783911      0.767960275584
H             7.173040174749      1.544245711594      2.731509885666
C             6.387169381301      5.886425773062       1.00970301926
C             6.436204396698      7.053002010651       1.73831014423
H             6.275881931771       8.08290090948       1.44968190145
N             6.749569608039      6.726064649793      3.031189280614
H             6.853397517986      7.384211615212      3.790746837041
H             7.559831140137       2.56936213852      4.945124353282
H             6.163617425876      5.810791320527      -0.04614367478
