25
-0.102153884381703
C             0.697092438124      1.206228481101                   0
H             1.238751481843      2.142336379831      0.004928675883
C             1.394066202537                   0                   0
H             2.475325479251      0.000114333064      0.010977564436
C             0.696663336265       -1.2063436648     -0.001377484826
H             1.238021589736     -2.142768045099      0.001261014205
C             -0.69694068372     -1.206903024974     -0.000507818264
H            -1.237799125947      -2.14373787832      -0.00169760104
C            -1.394117326826      0.000170803848      0.001981006868
H            -2.475865900014      0.000265443726      0.001461018677
C             -0.69676396638      1.206847404824      -9.5703779e-05
H            -1.237425243665      2.143795338383     -0.000181194041
C                     3.2504              2.5114              6.1882
C                     3.2509              1.1168              6.1727
C                     3.2513              0.4068               7.374
C                     3.2509              1.0917              8.5904
C                     3.2503              2.4875              8.6082
C                     3.2504               3.186               7.404
H                     3.2501                3.07              5.2568
H                     3.2511              0.5853               5.225
H                     3.2508               0.536              9.5246
H                     3.2499              3.0067               9.561
O                     3.2509              4.5495               7.374
H                     3.2552              4.8772               8.288
H                     3.2519             -0.6801              7.3618
