24
-0.880440056650235
C             0.697092438124      1.206228481101                   0
H             1.238751481843      2.142336379831      0.004928675883
C             1.394066202537                   0                   0
H             2.475325479251      0.000114333064      0.010977564436
C             0.696663336265       -1.2063436648     -0.001377484826
H             1.238021589736     -2.142768045099      0.001261014205
C             -0.69694068372     -1.206903024974     -0.000507818264
H            -1.237799125947      -2.14373787832      -0.00169760104
C            -1.394117326826      0.000170803848      0.001981006868
H            -2.475865900014      0.000265443726      0.001461018677
C             -0.69676396638      1.206847404824      -9.5703779e-05
H            -1.237425243665      2.143795338383     -0.000181194041
C             2.977042660038      1.447687947786      5.730012527505
H             3.347919255067      1.790529964315      6.686373710592
C             3.872887204471      1.082795229258      4.727478022825
H             4.937699869467        1.1367354616      4.907773844385
C             3.395558833826      0.636344460461      3.496837120462
H             4.091301026163      0.350606696297      2.719493520611
C              2.02322392219      0.552571055536      3.269214316999
H             1.653262000061      0.206018321581      2.313589813694
C             1.127032788156      0.915397727725      4.273349243888
H             0.061701972428      0.851671915383      4.096743669681
C              1.60425459132      1.365203579234      5.503108768319
H             0.909107872465      1.648760039481      6.281923783185
