24
-0.699377041043449
C             0.697092438124      1.206228481101                   0
H             1.238751481843      2.142336379831      0.004928675883
C             1.394066202537                   0                   0
H             2.475325479251      0.000114333064      0.010977564436
C             0.696663336265       -1.2063436648     -0.001377484826
H             1.238021589736     -2.142768045099      0.001261014205
C             -0.69694068372     -1.206903024974     -0.000507818264
H            -1.237799125947      -2.14373787832      -0.00169760104
C            -1.394117326826      0.000170803848      0.001981006868
H            -2.475865900014      0.000265443726      0.001461018677
C             -0.69676396638      1.206847404824      -9.5703779e-05
H            -1.237425243665      2.143795338383     -0.000181194041
C             5.000585519651      1.706521240926      5.196585363232
H             5.001622062336      2.640683073058      5.741615093175
C             6.207296745954      1.103648372977      4.848516550634
H             7.143637581134      1.566444341413      5.128387727155
C             6.206499979491     -0.102404932642      4.150610767508
H             7.143542169694     -0.571627467354      3.882751687033
C             4.999883175455     -0.706707528115      3.802720705787
H             4.999903451308     -1.642937352146      3.260814322047
C             3.792573577189     -0.104532910992      4.153260230802
H             2.855704512361     -0.572612809432      3.882413744791
C             3.793161002261      1.103475757844      4.848306382036
H              2.85646063451      1.572116252659      5.118777382218
