24
-1.33964204398379
C             0.697092438124      1.206228481101                   0
H             1.238751481843      2.142336379831      0.004928675883
C             1.394066202537                   0                   0
H             2.475325479251      0.000114333064      0.010977564436
C             0.696663336265       -1.2063436648     -0.001377484826
H             1.238021589736     -2.142768045099      0.001261014205
C             -0.69694068372     -1.206903024974     -0.000507818264
H            -1.237799125947      -2.14373787832      -0.00169760104
C            -1.394117326826      0.000170803848      0.001981006868
H            -2.475865900014      0.000265443726      0.001461018677
C             -0.69676396638      1.206847404824      -9.5703779e-05
H            -1.237425243665      2.143795338383     -0.000181194041
C             2.477042660038      1.789066069686      4.727297128001
H             2.847919255067      2.788720157697      4.908567823746
C             3.372887204471      0.738399361199      4.542036239563
H             4.437699869467      0.921510239036      4.585470538849
C             2.895558833826     -0.550592307583      4.313353495699
H             3.591301026163     -1.366660494605       4.17213785836
C              1.52322392219     -0.789606140325      4.272091990794
H             1.153262000061     -1.790477603644      4.094403210497
C             0.627032788156      0.261413551282      4.459942338952
H            -0.438298027572      0.076605731399      4.426827724213
C              1.10425459132       1.55131946574       4.68527880699
H             0.409107872465      2.367571283587      4.829119216442
