24
-0.609913459420303
C             0.697092438124      1.206228481101                   0
H             1.238751481843      2.142336379831      0.004928675883
C             1.394066202537                   0                   0
H             2.475325479251      0.000114333064      0.010977564436
C             0.696663336265       -1.2063436648     -0.001377484826
H             1.238021589736     -2.142768045099      0.001261014205
C             -0.69694068372     -1.206903024974     -0.000507818264
H            -1.237799125947      -2.14373787832      -0.00169760104
C            -1.394117326826      0.000170803848      0.001981006868
H            -2.475865900014      0.000265443726      0.001461018677
C             -0.69676396638      1.206847404824      -9.5703779e-05
H            -1.237425243665      2.143795338383     -0.000181194041
C             5.697092438124      2.603114240551      4.044624507402
H             6.238751481843      3.066899831394      4.857782066327
C             6.394066202537                 2.0                 3.0
H             7.475325479251      1.990550316859      3.005587797556
C             5.696663336265      1.398021104453      1.954586998176
H             6.238021589736      0.927523907114      1.144938945629
C              4.30305931628       1.39698827103      1.954537411336
H             3.762200874053      0.929601226466        1.1426197378
C             3.605882673174      1.998369799651      3.001138423905
H             2.524134099986      1.998867442573      3.000960390348
C              4.30323603362      2.603506584316      4.045112659179
H             3.762574756335      3.072054587834      4.856490626534
