24
-0.343329124674706
C             0.697092438124      1.206228481101                   0
H             1.238751481843      2.142336379831      0.004928675883
C             1.394066202537                   0                   0
H             2.475325479251      0.000114333064      0.010977564436
C             0.696663336265       -1.2063436648     -0.001377484826
H             1.238021589736     -2.142768045099      0.001261014205
C             -0.69694068372     -1.206903024974     -0.000507818264
H            -1.237799125947      -2.14373787832      -0.00169760104
C            -1.394117326826      0.000170803848      0.001981006868
H            -2.475865900014      0.000265443726      0.001461018677
C             -0.69676396638      1.206847404824      -9.5703779e-05
H            -1.237425243665      2.143795338383     -0.000181194041
C             7.197092438124      1.424024625079      4.775348722103
H             7.738751481843      2.137956787271      5.380842865508
C             7.894066202537                 0.5                 4.0
H             8.975325479251      0.493031341804      4.008482794112
C             7.196663336265     -0.423227430733      3.223522024646
H             7.738021589736     -1.142266118148      2.623621243103
C              5.80305931628     -0.424214936377      3.223828678094
H             5.262200874053     -1.141107292276      2.620731415557
C             5.105882673174      0.498857476669        4.0016273299
H             4.024134099986      0.499264216988      4.001289829177
C              5.80323603362      1.424560265361      4.775673245255
H             5.262574756335      2.142358975437      5.377866278528
