24
-0.769667712659232
C             0.697092438124      1.206228481101                   0
H             1.238751481843      2.142336379831      0.004928675883
C             1.394066202537                   0                   0
H             2.475325479251      0.000114333064      0.010977564436
C             0.696663336265       -1.2063436648     -0.001377484826
H             1.238021589736     -2.142768045099      0.001261014205
C             -0.69694068372     -1.206903024974     -0.000507818264
H            -1.237799125947      -2.14373787832      -0.00169760104
C            -1.394117326826      0.000170803848      0.001981006868
H            -2.475865900014      0.000265443726      0.001461018677
C             -0.69676396638      1.206847404824      -9.5703779e-05
H            -1.237425243665      2.143795338383     -0.000181194041
C             6.477042660038      1.133585677093      4.154475995819
H             6.847919255067      2.010955017596      4.666716565433
C             7.372887204471      0.209644879838      3.621038527809
H             8.437699869467      0.366857415261      3.724481027019
C             6.895558833826     -0.923396974738      2.965285925596
H             7.591301026163     -1.641951635618      2.553474874961
C              5.52322392219      -1.13388424381      2.844765248584
H             5.153262000061     -2.013622630141      2.335474211607
C             4.627032788156     -0.210497398307      3.380756740121
H             3.561701972428     -0.372834077636      3.286431183967
C              5.10425459132      0.924548059923       4.03367756207
H             4.409107872465        1.6423775524      4.448017897132
