25
-0.131347548390862
C             0.697092438124      1.206228481101                   0
H             1.238751481843      2.142336379831      0.004928675883
C             1.394066202537                   0                   0
H             2.475325479251      0.000114333064      0.010977564436
C             0.696663336265       -1.2063436648     -0.001377484826
H             1.238021589736     -2.142768045099      0.001261014205
C             -0.69694068372     -1.206903024974     -0.000507818264
H            -1.237799125947      -2.14373787832      -0.00169760104
C            -1.394117326826      0.000170803848      0.001981006868
H            -2.475865900014      0.000265443726      0.001461018677
C             -0.69676396638      1.206847404824      -9.5703779e-05
H            -1.237425243665      2.143795338383     -0.000181194041
C              6.11189460236       3.40301079528      1.620764825604
C             6.704399116419      2.187501767162      1.962270116023
C             7.913013134762      2.173273730475      2.659601864644
C             8.528542735236      3.374614529527      3.015439925388
C             7.937193605935      4.592312788129      2.674717166724
C             6.731634233664      4.595131532673      1.978571668565
H             5.171313707083      3.421072585834      1.078066602683
H             6.223870367475      1.253359265051      1.684605773359
H             9.469767893678      3.360464212644      3.558971994036
H             8.426773411113      5.518353177774      2.957838079248
O             6.118971414634      5.760957170733      1.624273274806
H             6.664723152223      6.501753695553      1.934397975099
H             8.374804640449      1.225890719102      2.925524494439
