25
-0.0892930874616705
C             0.697092438124      1.206228481101                   0
H             1.238751481843      2.142336379831      0.004928675883
C             1.394066202537                   0                   0
H             2.475325479251      0.000114333064      0.010977564436
C             0.696663336265       -1.2063436648     -0.001377484826
H             1.238021589736     -2.142768045099      0.001261014205
C             -0.69694068372     -1.206903024974     -0.000507818264
H            -1.237799125947      -2.14373787832      -0.00169760104
C            -1.394117326826      0.000170803848      0.001981006868
H            -2.475865900014      0.000265443726      0.001461018677
C             -0.69676396638      1.206847404824      -9.5703779e-05
H            -1.237425243665      2.143795338383     -0.000181194041
C              9.21481079528      2.813364826577              2.7496
C             8.014801767162      3.524088220335              2.7491
C             6.799273730475      2.838731902769              2.7487
C             6.784214529527      1.442848601606              2.7491
C             7.984112788129      0.729533349418              2.7497
C             9.191131532673      1.423151140656              2.7496
H            10.164272585834      3.340680887661              2.7499
H             8.028359265051      4.610570495502              2.7489
H             5.835864212644       0.91165766939              2.7492
H             7.957353177774     -0.355215655308              2.7501
O            10.386957170733      0.767381902769              2.7491
H            10.213753695553      -0.18801531629              2.7448
H             5.864090719102      3.392747412695              2.7481
