24
-1.83933141399261
C             0.697092438124      1.206228481101                   0
H             1.238751481843      2.142336379831      0.004928675883
C             1.394066202537                   0                   0
H             2.475325479251      0.000114333064      0.010977564436
C             0.696663336265       -1.2063436648     -0.001377484826
H             1.238021589736     -2.142768045099      0.001261014205
C             -0.69694068372     -1.206903024974     -0.000507818264
H            -1.237799125947      -2.14373787832      -0.00169760104
C            -1.394117326826      0.000170803848      0.001981006868
H            -2.475865900014      0.000265443726      0.001461018677
C             -0.69676396638      1.206847404824      -9.5703779e-05
H            -1.237425243665      2.143795338383     -0.000181194041
C             4.000585519651      2.393170726464                 3.5
H             4.001622062336      3.474693469307      3.504928675883
C             5.207296745954      1.697033101269                 3.5
H             6.143637581134      2.237761754963      3.510977564436
C             5.206499979491      0.303607408721      3.498622515174
H             6.143542169694     -0.236680766605      3.501261014205
C             3.999883175455     -0.393679021392      3.499492181736
H             3.999903451308     -1.475431024654       3.49830239896
C             2.792573577189      0.303089257058      3.501981006868
H             1.855704512361     -0.237703068997      3.501461018677
C             2.793161002261      1.696778527879      3.499904296221
H              1.85646063451      2.237868601722      3.499818805959
