25
-0.0641241407176724
C             0.697092438124      1.206228481101                   0
H             1.238751481843      2.142336379831      0.004928675883
C             1.394066202537                   0                   0
H             2.475325479251      0.000114333064      0.010977564436
C             0.696663336265       -1.2063436648     -0.001377484826
H             1.238021589736     -2.142768045099      0.001261014205
C             -0.69694068372     -1.206903024974     -0.000507818264
H            -1.237799125947      -2.14373787832      -0.00169760104
C            -1.394117326826      0.000170803848      0.001981006868
H            -2.475865900014      0.000265443726      0.001461018677
C             -0.69676396638      1.206847404824      -9.5703779e-05
H            -1.237425243665      2.143795338383     -0.000181194041
C             8.015347363468     -2.324764826577      2.525782413288
C             8.623534890229     -1.640888220335      3.578194110168
C             8.630995318733     -0.245531902769      3.590315951385
C             8.029978509046      0.465451398394      2.550124300803
C             7.420609764503     -0.217033349418      1.495866674709
C             7.419286994771     -1.609151140656      1.493375570328
H              8.00605666057     -3.410680887661      2.510290443831
H             9.090779346365     -2.195870495502      4.387085247751
H             8.036967064947       1.55234233061      2.562428834695
H             6.957243159519      0.348515655308      0.694092172346
O             6.836807188443     -2.316881902769      0.483490951385
H             6.470132835269      -1.68918468371     -0.160207658145
H             9.105206439662      0.287352587305      4.410473706348
