24
-0.62332288748548
C             0.697092438124      1.206228481101                   0
H             1.238751481843      2.142336379831      0.004928675883
C             1.394066202537                   0                   0
H             2.475325479251      0.000114333064      0.010977564436
C             0.696663336265       -1.2063436648     -0.001377484826
H             1.238021589736     -2.142768045099      0.001261014205
C             -0.69694068372     -1.206903024974     -0.000507818264
H            -1.237799125947      -2.14373787832      -0.00169760104
C            -1.394117326826      0.000170803848      0.001981006868
H            -2.475865900014      0.000265443726      0.001461018677
C             -0.69676396638      1.206847404824      -9.5703779e-05
H            -1.237425243665      2.143795338383     -0.000181194041
C             6.977042660038      1.227297128001      4.289066069686
H             7.347919255067      1.398860227303      5.290431868868
C             7.872887204471      1.042036239563      3.238399361199
H             8.937699869467      1.063848957717      3.425322707155
C             7.395558833826      0.816066611171      1.948929296958
H             8.091301026163      0.669654145229      1.133777451032
C              6.02322392219      0.773092197521      1.710217496243
H             5.653262000061      0.597746831828      0.708932825702
C             5.127032788156      0.956040517107      2.762101547747
H             4.061701972428      0.923950079173       2.57711313786
C              5.60425459132      1.185467306637      4.051286228166
H             4.909107872465      1.329476099034      4.867508355557
