24
-0.121478212293198
C             0.697092438124      1.206228481101                   0
H             1.238751481843      2.142336379831      0.004928675883
C             1.394066202537                   0                   0
H             2.475325479251      0.000114333064      0.010977564436
C             0.696663336265       -1.2063436648     -0.001377484826
H             1.238021589736     -2.142768045099      0.001261014205
C             -0.69694068372     -1.206903024974     -0.000507818264
H            -1.237799125947      -2.14373787832      -0.00169760104
C            -1.394117326826      0.000170803848      0.001981006868
H            -2.475865900014      0.000265443726      0.001461018677
C             -0.69676396638      1.206847404824      -9.5703779e-05
H            -1.237425243665      2.143795338383     -0.000181194041
C             3.977042660038      1.002715399504      7.841378121899
H             4.347919255067      1.777805886846      8.498190193382
C             4.872887204471      0.185441783262       7.15560413194
H             5.937699869467      0.322303305536      7.284774777437
C             4.395558833826     -0.816516375237      6.313063231956
H             5.091301026163     -1.452644337749      5.782732809098
C              3.02322392219     -1.002877673795      6.157822804139
H             2.653262000061     -1.780813396803      5.503504074775
C             2.127032788156     -0.186593095064      6.846015823557
H             1.061701972428     -0.330084054532      6.724933816015
C              2.60425459132      0.817829961329      7.686115886506
H             1.909107872465      1.452804566744      8.218811244105
