24
-0.369227425135132
C             0.697092438124      1.206228481101                   0
H             1.238751481843      2.142336379831      0.004928675883
C             1.394066202537                   0                   0
H             2.475325479251      0.000114333064      0.010977564436
C             0.696663336265       -1.2063436648     -0.001377484826
H             1.238021589736     -2.142768045099      0.001261014205
C             -0.69694068372     -1.206903024974     -0.000507818264
H            -1.237799125947      -2.14373787832      -0.00169760104
C            -1.394117326826      0.000170803848      0.001981006868
H            -2.475865900014      0.000265443726      0.001461018677
C             -0.69676396638      1.206847404824      -9.5703779e-05
H            -1.237425243665      2.143795338383     -0.000181194041
C             6.742498182121       1.88184267322      5.050939173913
H             6.931323430794      2.562579320038      5.869877176875
C             7.809993723411      1.306480311071      4.365249011779
H             8.826005982685      1.535850931174      4.655680330876
C             7.567243229395      0.425555032387      3.313260160135
H             8.396229586147      -0.02307221192      2.782711805806
C             6.257875127965      0.118172260924      2.948288598934
H             6.070050831728     -0.565691632042      2.131440374233
C             5.189899817115      0.692094079553      3.636133912712
H               4.1733562966      0.454731145671      3.352446825491
C             5.432489919993      1.575855642844      4.686129142526
H             4.603979440859      2.022996634706      5.218878026736
