25
-1.09137199868672
C             0.697092438124      1.206228481101                   0
H             1.238751481843      2.142336379831      0.004928675883
C             1.394066202537                   0                   0
H             2.475325479251      0.000114333064      0.010977564436
C             0.696663336265       -1.2063436648     -0.001377484826
H             1.238021589736     -2.142768045099      0.001261014205
C             -0.69694068372     -1.206903024974     -0.000507818264
H            -1.237799125947      -2.14373787832      -0.00169760104
C            -1.394117326826      0.000170803848      0.001981006868
H            -2.475865900014      0.000265443726      0.001461018677
C             -0.69676396638      1.206847404824      -9.5703779e-05
H            -1.237425243665      2.143795338383     -0.000181194041
C              2.81628920472             -0.8118      4.027447238892
C             4.024298232838             -0.8273       4.72431422619
C             4.639376269525               0.374      5.078967816029
C             4.046035470473              1.5904       4.73686422619
C             2.836937211871              1.6082      4.039483841433
C             2.232068467327               0.404      3.690147238892
H             2.332377414166             -1.7432      3.748407046514
H             4.484690734949              -1.775       4.98989102111
H             4.527235787356              2.5246      5.014800828731
H             2.387096822226               2.561      3.780230251594
O             1.051492829267               0.374       3.00796422619
H             0.769846304447               1.288      2.840390316954
H             5.580959280898              0.3618      5.621898200787
