25
-0.0493854603626888
C             0.697092438124      1.206228481101                   0
H             1.238751481843      2.142336379831      0.004928675883
C             1.394066202537                   0                   0
H             2.475325479251      0.000114333064      0.010977564436
C             0.696663336265       -1.2063436648     -0.001377484826
H             1.238021589736     -2.142768045099      0.001261014205
C             -0.69694068372     -1.206903024974     -0.000507818264
H            -1.237799125947      -2.14373787832      -0.00169760104
C            -1.394117326826      0.000170803848      0.001981006868
H            -2.475865900014      0.000265443726      0.001461018677
C             -0.69676396638      1.206847404824      -9.5703779e-05
H            -1.237425243665      2.143795338383     -0.000181194041
C              8.21481079528      3.813364826577              5.7496
C             7.014801767162      4.524088220335              5.7491
C             5.799273730475      3.838731902769              5.7487
C             5.784214529527      2.442848601606              5.7491
C             6.984112788129      1.729533349418              5.7497
C             8.191131532673      2.423151140656              5.7496
H             9.164272585834      4.340680887661              5.7499
H             7.028359265051      5.610570495502              5.7489
H             4.835864212644       1.91165766939              5.7492
H             6.957353177774      0.644784344692              5.7501
O             9.386957170733      1.767381902769              5.7491
H             9.213753695553       0.81198468371              5.7448
H             4.864090719102      4.392747412695              5.7481
