28
-0.986915093559849
C             0.697092438124      1.206228481101                   0
H             1.238751481843      2.142336379831      0.004928675883
C             1.394066202537                   0                   0
H             2.475325479251      0.000114333064      0.010977564436
C             0.696663336265       -1.2063436648     -0.001377484826
H             1.238021589736     -2.142768045099      0.001261014205
C             -0.69694068372     -1.206903024974     -0.000507818264
H            -1.237799125947      -2.14373787832      -0.00169760104
C            -1.394117326826      0.000170803848      0.001981006868
H            -2.475865900014      0.000265443726      0.001461018677
C             -0.69676396638      1.206847404824      -9.5703779e-05
H            -1.237425243665      2.143795338383     -0.000181194041
C             2.443834772623      0.586302053215      3.785366368021
C             2.159229584731      1.363574010605      4.914345862866
C             1.721996030797      0.810687029604      6.118389010661
C             1.559690837258      -0.58544534776      6.203733235571
C             1.839947273975      -1.37749458985      5.084048670534
C             2.275301500616     -0.797623155814      3.894116852347
H             2.782963174438      1.034130482416      2.857263870405
H             1.220857935694     -1.044416216089      7.127499590904
H             1.715897755625     -2.455754288406      5.145999172304
C              1.53557839364      1.886425773062      7.030063055745
C             1.857416387117      3.053002010651      6.374553268445
H             1.851945593151       4.08290090948      6.704673891405
N             2.232473721625      2.726064649793      5.098204486643
H             2.522334892203      3.384211615212      4.388494392167
H             2.487734187453      -1.43063786148       3.03555732647
H             1.201256719084      1.810791320527      8.056229092999
