28
-0.743702708005537
C             0.697092438124      1.206228481101                   0
H             1.238751481843      2.142336379831      0.004928675883
C             1.394066202537                   0                   0
H             2.475325479251      0.000114333064      0.010977564436
C             0.696663336265       -1.2063436648     -0.001377484826
H             1.238021589736     -2.142768045099      0.001261014205
C             -0.69694068372     -1.206903024974     -0.000507818264
H            -1.237799125947      -2.14373787832      -0.00169760104
C            -1.394117326826      0.000170803848      0.001981006868
H            -2.475865900014      0.000265443726      0.001461018677
C             -0.69676396638      1.206847404824      -9.5703779e-05
H            -1.237425243665      2.143795338383     -0.000181194041
C             2.494919538986      1.129158011573      5.679285723983
C             2.510179120371     -0.103993007593      6.341744943562
C             3.001140076147     -0.255853201729      7.638846681107
C             3.502091121757       0.87570147231      8.310742727576
C             3.494189733184      2.116537984961      7.662790943622
C             2.997480409556      2.238448740478       6.36658898015
H             2.109034411064      1.227989485927      4.670198201155
H              3.89072780792      0.788471113049      9.320771768244
H             3.880055389148      2.992500542045      8.178220297982
C             2.859490545922     -1.628841132195      7.982291723992
C             2.294815915732     -2.274822226914      6.906176543964
H              2.02347755885     -3.311054958019      6.756849653655
N             2.088099401565     -1.345246598773       5.92140261598
H             1.684582198095     -1.535439812035      5.014834497948
H             3.000223902827      3.211530908298      5.880725530799
H             3.141992516362     -2.091263121919      8.918703400882
