28
-0.297177218271526
C             0.697092438124      1.206228481101                   0
H             1.238751481843      2.142336379831      0.004928675883
C             1.394066202537                   0                   0
H             2.475325479251      0.000114333064      0.010977564436
C             0.696663336265       -1.2063436648     -0.001377484826
H             1.238021589736     -2.142768045099      0.001261014205
C             -0.69694068372     -1.206903024974     -0.000507818264
H            -1.237799125947      -2.14373787832      -0.00169760104
C            -1.394117326826      0.000170803848      0.001981006868
H            -2.475865900014      0.000265443726      0.001461018677
C             -0.69676396638      1.206847404824      -9.5703779e-05
H            -1.237425243665      2.143795338383     -0.000181194041
C             8.257654717112      3.396312344679      3.000381805217
C             7.365670637004      2.814976040859      2.091448908246
C             7.096299728765      1.446172506965      2.071617226703
C             7.746850827519      0.613817939215      3.002628166033
C             8.641914395081      1.178911338833      3.918657563559
C             8.891609694519      2.549809829449      3.915266330242
H             8.454604323053       4.46315033805      3.000793653856
H             7.557357758622     -0.455211211645      3.011307097569
H              9.14610745823      0.539603596119      4.639035999091
C             6.154852549892      1.219565140135      1.029772106355
C             5.874327571541      2.433845538532      0.445818560266
H             5.217367878565      2.698835597449     -0.371424076641
N             6.610497619296      3.390043034234      1.094172063304
H             6.605318620301      4.376912656446      0.877545954018
H             9.590593443337      2.969208172722      4.635326377772
H             5.730039882566      0.267357854327      0.741078893698
