28
-4.43224233937368
C             0.697092438124      1.206228481101                   0
H             1.238751481843      2.142336379831      0.004928675883
C             1.394066202537                   0                   0
H             2.475325479251      0.000114333064      0.010977564436
C             0.696663336265       -1.2063436648     -0.001377484826
H             1.238021589736     -2.142768045099      0.001261014205
C             -0.69694068372     -1.206903024974     -0.000507818264
H            -1.237799125947      -2.14373787832      -0.00169760104
C            -1.394117326826      0.000170803848      0.001981006868
H            -2.475865900014      0.000265443726      0.001461018677
C             -0.69676396638      1.206847404824      -9.5703779e-05
H            -1.237425243665      2.143795338383     -0.000181194041
C            -0.222944627815     -0.810010291464      4.855337043677
C             0.095069796844      0.548597969746      4.742213541344
C             0.318436005648      1.364514522639      5.851702077418
C             0.220547697332      0.800736713025      7.138319615065
C            -0.096585391416     -0.556405928683       7.26935263181
C            -0.314523480593     -1.347432985263      6.143075090686
H            -0.393302065506     -1.429019855634      3.980843976872
H             0.388992974606      1.410794995556      8.020510837465
H            -0.173040174749     -0.995357884525      8.260990656379
C             0.612830618699      2.666860632927      5.361455848545
C             0.563795603302      2.619156472119      3.986867628856
H             0.724118068229      3.384065312031      3.239263140531
N             0.250430391961      1.336021615559      3.623564120613
H             0.146602482014      1.007298958766      2.673813350924
H            -0.559831140137     -2.399846034202      6.266406555016
H             0.836382574124        3.5434334662      5.954880552861
