28
-0.166929002907351
C             0.697092438124      1.206228481101                   0
H             1.238751481843      2.142336379831      0.004928675883
C             1.394066202537                   0                   0
H             2.475325479251      0.000114333064      0.010977564436
C             0.696663336265       -1.2063436648     -0.001377484826
H             1.238021589736     -2.142768045099      0.001261014205
C             -0.69694068372     -1.206903024974     -0.000507818264
H            -1.237799125947      -2.14373787832      -0.00169760104
C            -1.394117326826      0.000170803848      0.001981006868
H            -2.475865900014      0.000265443726      0.001461018677
C             -0.69676396638      1.206847404824      -9.5703779e-05
H            -1.237425243665      2.143795338383     -0.000181194041
C             2.603687655321      2.129158011573      6.777055372185
C             3.185023959141      0.896006992407      7.095069796844
C             4.553827493035      0.744146798271      7.318436005648
C             5.386182060785       1.87570147231      7.220547697332
C             4.821088661167      3.116537984961      6.903414608584
C             3.450190170551      3.238448740478      6.685476519407
H              1.53684966195      2.227989485927      6.606697934494
H             6.455211211645      1.788471113049      7.388992974606
H             5.460396403881      3.992500542045      6.826959825251
C             4.780434859865     -0.628841132195      7.612830618699
C             3.566154461468     -1.274822226914      7.563795603302
H             3.301164402551     -2.311054958019      7.724118068229
N             2.609956965766     -0.345246598773      7.250430391961
H             1.623087343554     -0.535439812035      7.146602482014
H             3.030791827278      4.211530908298      6.440168859863
H             5.732642145673     -1.091263121919      7.836382574124
