24
-0.269814751050607
C             0.697092438124      1.206228481101                   0
H             1.238751481843      2.142336379831      0.004928675883
C             1.394066202537                   0                   0
H             2.475325479251      0.000114333064      0.010977564436
C             0.696663336265       -1.2063436648     -0.001377484826
H             1.238021589736     -2.142768045099      0.001261014205
C             -0.69694068372     -1.206903024974     -0.000507818264
H            -1.237799125947      -2.14373787832      -0.00169760104
C            -1.394117326826      0.000170803848      0.001981006868
H            -2.475865900014      0.000265443726      0.001461018677
C             -0.69676396638      1.206847404824      -9.5703779e-05
H            -1.237425243665      2.143795338383     -0.000181194041
C             3.977042660038                 1.5      8.308951991638
H             4.347919255067      1.495071324117      9.324896413822
C             4.872887204471                 1.5      7.242077055618
H             5.937699869467      1.489022435564      7.429948354692
C             4.395558833826      1.501377484826      5.932957724898
H             5.091301026163      1.498738985795       5.10476560925
C              3.02322392219      1.500507818264      5.690410064202
H             2.653262000061       1.50169760104      4.673888754466
C             2.127032788156      1.498018993132      6.758082275697
H             1.061701972428      1.498538981323      6.570331809354
C              2.60425459132      1.500095703779      8.067520887947
H             1.909107872465      1.500181194041       8.89634963155
