28
-0.75806770677918
C             0.697092438124      1.206228481101                   0
H             1.238751481843      2.142336379831      0.004928675883
C             1.394066202537                   0                   0
H             2.475325479251      0.000114333064      0.010977564436
C             0.696663336265       -1.2063436648     -0.001377484826
H             1.238021589736     -2.142768045099      0.001261014205
C             -0.69694068372     -1.206903024974     -0.000507818264
H            -1.237799125947      -2.14373787832      -0.00169760104
C            -1.394117326826      0.000170803848      0.001981006868
H            -2.475865900014      0.000265443726      0.001461018677
C             -0.69676396638      1.206847404824      -9.5703779e-05
H            -1.237425243665      2.143795338383     -0.000181194041
C             3.777055372185     -1.144662956323      5.810010291464
C             4.095069796844     -1.257786458656      4.451402030254
C             4.318436005648     -0.148297922582      3.635485477361
C             4.220547697332      1.138319615065      4.199263286975
C             3.903414608584       1.26935263181      5.556405928683
C             3.685476519407      0.143075090686      6.347432985263
H             3.606697934494     -2.019156023128      6.429019855634
H             4.388992974606      2.020510837465      3.589205004444
H             3.826959825251      2.260990656379      5.995357884525
C             4.612830618699     -0.638544151455      2.333139367073
C             4.563795603302     -2.013132371144      2.380843527881
H             4.724118068229     -2.760736859469      1.615934687969
N             4.250430391961     -2.376435879387      3.663978384441
H             4.146602482014     -3.326186649076      3.992701041234
H             3.440168859863      0.266406555016      7.399846034202
H             4.836382574124     -0.045119447139        1.4565665338
