25
-1.05476864572712
C             0.697092438124      1.206228481101                   0
H             1.238751481843      2.142336379831      0.004928675883
C             1.394066202537                   0                   0
H             2.475325479251      0.000114333064      0.010977564436
C             0.696663336265       -1.2063436648     -0.001377484826
H             1.238021589736     -2.142768045099      0.001261014205
C             -0.69694068372     -1.206903024974     -0.000507818264
H            -1.237799125947      -2.14373787832      -0.00169760104
C            -1.394117326826      0.000170803848      0.001981006868
H            -2.475865900014      0.000265443726      0.001461018677
C             -0.69676396638      1.206847404824      -9.5703779e-05
H            -1.237425243665      2.143795338383     -0.000181194041
C                     5.2504       2.40301079528      0.675235173423
C                     5.2509      1.187501767162      1.359111779665
C                     5.2513      1.173273730475      2.754468097231
C                     5.2509      2.374614529527      3.465451398394
C                     5.2503      3.592312788129      2.782966650582
C                     5.2504      3.595131532673      1.390848859344
H                     5.2501      2.421072585834     -0.410680887661
H                     5.2511      0.253359265051      0.804129504498
H                     5.2508      2.360464212644       4.55234233061
H                     5.2499      4.518353177774      3.348515655308
O                     5.2509      4.760957170733      0.683118097231
H                     5.2552      5.501753695553       1.31081531629
H                     5.2519      0.225890719102      3.287352587305
