28
-0.448112962028779
C             0.697092438124      1.206228481101                   0
H             1.238751481843      2.142336379831      0.004928675883
C             1.394066202537                   0                   0
H             2.475325479251      0.000114333064      0.010977564436
C             0.696663336265       -1.2063436648     -0.001377484826
H             1.238021589736     -2.142768045099      0.001261014205
C             -0.69694068372     -1.206903024974     -0.000507818264
H            -1.237799125947      -2.14373787832      -0.00169760104
C            -1.394117326826      0.000170803848      0.001981006868
H            -2.475865900014      0.000265443726      0.001461018677
C             -0.69676396638      1.206847404824      -9.5703779e-05
H            -1.237425243665      2.143795338383     -0.000181194041
C             5.619224786283      0.726179032104      5.100075315282
C             6.133354834703      1.846206548937      5.764119864502
C             5.542857559331      3.107555279147      5.681117185173
C             4.382715607646      3.262618142755      4.898277234756
C             3.855347387322      2.152814646849      4.227607302474
C             4.466499824715      0.904626350208      4.328803097813
H             6.092234301354     -0.247145509055      5.176455661119
H              3.90101253744      4.232039724416      4.814669689858
H             2.959774488163      2.268490114334      3.622265668589
C             6.327277332476       3.99029698074      6.473939770541
C             7.362079497378       3.26168985577      7.014762320327
H              8.17383687463       3.55031809855      7.668555097166
N             7.235626043099      1.968810719386      6.579911406215
H             7.857511989549      1.209253162959      6.819067281288
H             4.040946838411      0.054875646718      3.799853080072
H             6.149999997467       5.04614367478      6.629724216738
