28
-0.0200209256621006
C             0.697092438124      1.206228481101                   0
H             1.238751481843      2.142336379831      0.004928675883
C             1.394066202537                   0                   0
H             2.475325479251      0.000114333064      0.010977564436
C             0.696663336265       -1.2063436648     -0.001377484826
H             1.238021589736     -2.142768045099      0.001261014205
C             -0.69694068372     -1.206903024974     -0.000507818264
H            -1.237799125947      -2.14373787832      -0.00169760104
C            -1.394117326826      0.000170803848      0.001981006868
H            -2.475865900014      0.000265443726      0.001461018677
C             -0.69676396638      1.206847404824      -9.5703779e-05
H            -1.237425243665      2.143795338383     -0.000181194041
C             4.679285723983      0.129158011573      7.505080461014
C             5.341744943562     -1.103993007593      7.489820879629
C             6.638846681107     -1.255853201729      6.998859923853
C             7.310742727576      -0.12429852769      6.497908878243
C             6.662790943622      1.116537984961      6.505810266816
C              5.36658898015      1.238448740478      7.002519590444
H             3.670198201155      0.227989485927      7.890965588936
H             8.320771768244     -0.211528886951       6.10927219208
H             7.178220297982      1.992500542045      6.119944610852
C             6.982291723992     -2.628841132195      7.140509454078
C             5.906176543964     -3.274822226914      7.705184084268
H             5.756849653655     -4.311054958019       7.97652244115
N              4.92140261598     -2.345246598773      7.911900598435
H             4.014834497948     -2.535439812035      8.315417801905
H             4.880725530799      2.211530908298      6.999776097173
H             7.918703400882     -3.091263121919      6.858007483638
