25
-0.230861941635853
C             0.697092438124      1.206228481101                   0
H             1.238751481843      2.142336379831      0.004928675883
C             1.394066202537                   0                   0
H             2.475325479251      0.000114333064      0.010977564436
C             0.696663336265       -1.2063436648     -0.001377484826
H             1.238021589736     -2.142768045099      0.001261014205
C             -0.69694068372     -1.206903024974     -0.000507818264
H            -1.237799125947      -2.14373787832      -0.00169760104
C            -1.394117326826      0.000170803848      0.001981006868
H            -2.475865900014      0.000265443726      0.001461018677
C             -0.69676396638      1.206847404824      -9.5703779e-05
H            -1.237425243665      2.143795338383     -0.000181194041
C             5.189829652181      -1.21481079528       4.17040539764
C             5.544758336358     -0.014801767162      3.554650883581
C             5.201733767413      1.200726269525      4.147986865238
C             4.504138526993      1.215785470473      5.357057264764
C             4.148000516142      0.015887211871      5.975106394065
C              4.49472280922     -1.191131532673      5.374365766336
H             5.453747490344     -2.164272585834      3.713886292917
H             6.087826268861     -0.028359265051      2.613629632525
H             4.238629663426      2.164135787356      5.817132106322
H             3.605972423941      0.042646822226      6.914726588887
O             4.166405177575     -2.386957170733      5.942028585366
H             3.684982658809     -2.213753695553      6.767276847777
H             5.478221907134      2.135909280898      3.667895359551
