28
-0.604897591684547
C             0.697092438124      1.206228481101                   0
H             1.238751481843      2.142336379831      0.004928675883
C             1.394066202537                   0                   0
H             2.475325479251      0.000114333064      0.010977564436
C             0.696663336265       -1.2063436648     -0.001377484826
H             1.238021589736     -2.142768045099      0.001261014205
C             -0.69694068372     -1.206903024974     -0.000507818264
H            -1.237799125947      -2.14373787832      -0.00169760104
C            -1.394117326826      0.000170803848      0.001981006868
H            -2.475865900014      0.000265443726      0.001461018677
C             -0.69676396638      1.206847404824      -9.5703779e-05
H            -1.237425243665      2.143795338383     -0.000181194041
C             4.776673566968     -1.396312344679      3.871503294461
C             6.003620888598     -0.814976040859      3.530336355403
C             6.246818778945      0.553827493035      3.647847069506
C             5.217919531299      1.386182060785      4.128850644791
C             3.984757045025      0.821088661167       4.47462358988
C             3.770210189165     -0.549809829449      4.346839045959
H             4.605904280638      -2.46315033805      3.773385162874
H             5.377685877037      2.455211211645      4.231113354427
H              3.18792382616      1.460396403881      4.846393083815
C             7.583058512344      0.780434859865      3.216306317913
C             8.117977043036     -0.433845538532      2.850850201545
H              9.09554214487     -0.698835597449      2.471577163416
N             7.156258328657     -1.390043034234      3.044255781931
H             7.269056527996     -2.376912656446      2.859241567664
H             2.804842482091     -0.969208172722      4.620937464961
H             8.095303680426      1.732642145673      3.178696995515
