24
-0.957108353284992
C             0.697092438124      1.206228481101                   0
H             1.238751481843      2.142336379831      0.004928675883
C             1.394066202537                   0                   0
H             2.475325479251      0.000114333064      0.010977564436
C             0.696663336265       -1.2063436648     -0.001377484826
H             1.238021589736     -2.142768045099      0.001261014205
C             -0.69694068372     -1.206903024974     -0.000507818264
H            -1.237799125947      -2.14373787832      -0.00169760104
C            -1.394117326826      0.000170803848      0.001981006868
H            -2.475865900014      0.000265443726      0.001461018677
C             -0.69676396638      1.206847404824      -9.5703779e-05
H            -1.237425243665      2.143795338383     -0.000181194041
C             3.197092438124      1.209459377593      7.187903160092
H             3.738751481843      1.367159010086      8.110645332003
C             3.894066202537                 1.0                 6.0
H             4.975325479251      0.989209063162      6.002018830147
C             3.196663336265      0.791877178704      4.811744208378
H             3.738021589736       0.62667037724      3.890004389098
C              1.80305931628      0.790923592456      4.811344362156
H             1.262200874053        0.6294156347      3.888535531678
C             1.105882673174      0.998078748855      6.000512207186
H             0.024134099986      0.998607271299       6.00051511427
C              1.80323603362      1.209661102393      7.188496062187
H             1.262574756335      1.372444595097      8.111194806096
