24
-0.421414587636394
C             0.697092438124      1.206228481101                   0
H             1.238751481843      2.142336379831      0.004928675883
C             1.394066202537                   0                   0
H             2.475325479251      0.000114333064      0.010977564436
C             0.696663336265       -1.2063436648     -0.001377484826
H             1.238021589736     -2.142768045099      0.001261014205
C             -0.69694068372     -1.206903024974     -0.000507818264
H            -1.237799125947      -2.14373787832      -0.00169760104
C            -1.394117326826      0.000170803848      0.001981006868
H            -2.475865900014      0.000265443726      0.001461018677
C             -0.69676396638      1.206847404824      -9.5703779e-05
H            -1.237425243665      2.143795338383     -0.000181194041
C             4.000585519651      1.206521240926      6.196585363232
H             4.001622062336      2.140683073058      6.741615093175
C             5.207296745954      0.603648372977      5.848516550634
H             6.143637581134      1.066444341413      6.128387727155
C             5.206499979491     -0.602404932642      5.150610767508
H             6.143542169694     -1.071627467354      4.882751687033
C             3.999883175455     -1.206707528115      4.802720705787
H             3.999903451308     -2.142937352146      4.260814322047
C             2.792573577189     -0.604532910992      5.153260230802
H             1.855704512361     -1.072612809432      4.882413744791
C             2.793161002261      0.603475757844      5.848306382036
H              1.85646063451      1.072116252659      6.118777382218
