25
-0.0359752792732732
C             0.697092438124      1.206228481101                   0
H             1.238751481843      2.142336379831      0.004928675883
C             1.394066202537                   0                   0
H             2.475325479251      0.000114333064      0.010977564436
C             0.696663336265       -1.2063436648     -0.001377484826
H             1.238021589736     -2.142768045099      0.001261014205
C             -0.69694068372     -1.206903024974     -0.000507818264
H            -1.237799125947      -2.14373787832      -0.00169760104
C            -1.394117326826      0.000170803848      0.001981006868
H            -2.475865900014      0.000265443726      0.001461018677
C             -0.69676396638      1.206847404824      -9.5703779e-05
H            -1.237425243665      2.143795338383     -0.000181194041
C             5.305735173423              5.5114      5.689047238892
C             5.292061779665              4.1168       5.69636422619
C             6.332218097231              3.4068      5.095367816029
C             7.385851398394              4.0917       4.48751422619
C             7.401566650582              5.4875      4.479133841433
C             6.358648859344               6.186      5.081147238892
H             4.499269112339                6.07      6.155007046514
H             4.471229504498              3.5853       6.17004102111
H              8.19494233061               3.536      4.020500828731
H             8.226915655308              6.0067      4.003080251594
O             6.332418097231              7.5495       5.09571422619
H              7.12181531629              7.8772      4.634990316954
H             6.321352587305              2.3199      5.100948200787
