25
-0.100558066255558
C             0.697092438124      1.206228481101                   0
H             1.238751481843      2.142336379831      0.004928675883
C             1.394066202537                   0                   0
H             2.475325479251      0.000114333064      0.010977564436
C             0.696663336265       -1.2063436648     -0.001377484826
H             1.238021589736     -2.142768045099      0.001261014205
C             -0.69694068372     -1.206903024974     -0.000507818264
H            -1.237799125947      -2.14373787832      -0.00169760104
C            -1.394117326826      0.000170803848      0.001981006868
H            -2.475865900014      0.000265443726      0.001461018677
C             -0.69676396638      1.206847404824      -9.5703779e-05
H            -1.237425243665      2.143795338383     -0.000181194041
C             6.305735173423              2.5114      4.689047238892
C             6.292061779665              1.1168       4.69636422619
C             7.332218097231              0.4068      4.095367816029
C             8.385851398394              1.0917       3.48751422619
C             8.401566650582              2.4875      3.479133841433
C             7.358648859344               3.186      4.081147238892
H             5.499269112339                3.07      5.155007046514
H             5.471229504498              0.5853       5.17004102111
H              9.19494233061               0.536      3.020500828731
H             9.226915655308              3.0067      3.003080251594
O             7.332418097231              4.5495       4.09571422619
H              8.12181531629              4.8772      3.634990316954
H             7.321352587305             -0.6801      4.100948200787
