24
-2.25744643375736
C             0.697092438124      1.206228481101                   0
H             1.238751481843      2.142336379831      0.004928675883
C             1.394066202537                   0                   0
H             2.475325479251      0.000114333064      0.010977564436
C             0.696663336265       -1.2063436648     -0.001377484826
H             1.238021589736     -2.142768045099      0.001261014205
C             -0.69694068372     -1.206903024974     -0.000507818264
H            -1.237799125947      -2.14373787832      -0.00169760104
C            -1.394117326826      0.000170803848      0.001981006868
H            -2.475865900014      0.000265443726      0.001461018677
C             -0.69676396638      1.206847404824      -9.5703779e-05
H            -1.237425243665      2.143795338383     -0.000181194041
C             2.697092438124      2.187903160092      3.709459377593
H             3.238751481843      3.108933620832      3.876866606529
C             3.394066202537                 1.0                 3.5
H             4.475325479251      0.998206362028      3.510830644294
C             2.696663336265     -0.187777396162      3.289164063231
H             3.238021589736     -1.110433556539      3.129154090371
C              1.30305931628     -0.188479274412      3.289923385729
H             0.762200874053     -1.110874897668      3.126072013368
C             0.605882673174      0.999824210721      3.501980570699
H            -0.475865900014      1.000007707809       3.50148491634
C              1.30323603362       2.18852929976      3.709472602746
H             0.762574756335      3.111257734126      3.872087712505
