28
-0.405865291081451
C             0.697092438124      1.206228481101                   0
H             1.238751481843      2.142336379831      0.004928675883
C             1.394066202537                   0                   0
H             2.475325479251      0.000114333064      0.010977564436
C             0.696663336265       -1.2063436648     -0.001377484826
H             1.238021589736     -2.142768045099      0.001261014205
C             -0.69694068372     -1.206903024974     -0.000507818264
H            -1.237799125947      -2.14373787832      -0.00169760104
C            -1.394117326826      0.000170803848      0.001981006868
H            -2.475865900014      0.000265443726      0.001461018677
C             -0.69676396638      1.206847404824      -9.5703779e-05
H            -1.237425243665      2.143795338383     -0.000181194041
C             5.620744233163      1.810010291464      3.897220487146
C             5.288773911472      0.451402030254       3.95825987269
C             5.650077368338     -0.364514522639       5.03078823454
C             6.378159898897      0.199263286975      6.096087552938
C             6.718321718506      1.556405928683      6.050998929801
C             6.343922869623      2.347432985263      4.966644922886
H             5.331031568525      2.429019855634      3.054708557014
H              6.67337762083     -0.410794995556       6.94431020117
H             7.280352515397      1.995357884525      6.871555258769
C             5.150001040262     -1.666860632927      4.753419852751
C             4.505172499426     -1.619156472119      3.538474027059
H              3.99252692784     -2.384065312031       2.97119078065
N             4.594902978989     -0.336021615559      3.067161353967
H              4.20994520178     -0.007298958766      2.192739105178
H             6.618031266696      3.399846034202       4.95079927431
H             5.253111719956       -2.5434334662      5.379116699635
