25
-0.0384725140332309
C             0.697092438124      1.206228481101                   0
H             1.238751481843      2.142336379831      0.004928675883
C             1.394066202537                   0                   0
H             2.475325479251      0.000114333064      0.010977564436
C             0.696663336265       -1.2063436648     -0.001377484826
H             1.238021589736     -2.142768045099      0.001261014205
C             -0.69694068372     -1.206903024974     -0.000507818264
H            -1.237799125947      -2.14373787832      -0.00169760104
C            -1.394117326826      0.000170803848      0.001981006868
H            -2.475865900014      0.000265443726      0.001461018677
C             -0.69676396638      1.206847404824      -9.5703779e-05
H            -1.237425243665      2.143795338383     -0.000181194041
C                     9.2504       0.40301079528      1.675235173423
C                     9.2509     -0.812498232838      2.359111779665
C                     9.2513     -0.826726269525      3.754468097231
C                     9.2509      0.374614529527      4.465451398394
C                     9.2503      1.592312788129      3.782966650582
C                     9.2504      1.595131532673      2.390848859344
H                     9.2501      0.421072585834      0.589319112339
H                     9.2511     -1.746640734949      1.804129504498
H                     9.2508      0.360464212644       5.55234233061
H                     9.2499      2.518353177774      4.348515655308
O                     9.2509      2.760957170733      1.683118097231
H                     9.2552      3.501753695553       2.31081531629
H                     9.2519     -1.774109280898      4.287352587305
