25
-0.00898605439630882
C             0.697092438124      1.206228481101                   0
H             1.238751481843      2.142336379831      0.004928675883
C             1.394066202537                   0                   0
H             2.475325479251      0.000114333064      0.010977564436
C             0.696663336265       -1.2063436648     -0.001377484826
H             1.238021589736     -2.142768045099      0.001261014205
C             -0.69694068372     -1.206903024974     -0.000507818264
H            -1.237799125947      -2.14373787832      -0.00169760104
C            -1.394117326826      0.000170803848      0.001981006868
H            -2.475865900014      0.000265443726      0.001461018677
C             -0.69676396638      1.206847404824      -9.5703779e-05
H            -1.237425243665      2.143795338383     -0.000181194041
C              4.13850539764      -0.40301079528      9.945529652181
C             3.546500883581      0.812498232838      9.603158336358
C             2.338286865238      0.826726269525      8.905133767413
C             1.722357264764     -0.374614529527      8.549988526993
C             2.313106394065     -1.592312788129      8.891750516142
C             3.518765766336     -1.595131532673       9.58772280922
H             5.078786292917     -0.421072585834     10.488747490344
H             4.027229632525      1.746640734949      9.880476268861
H             0.781032106322     -0.360464212644      8.006629663426
H             1.823126588887     -2.518353177774      8.609322423941
O             4.131928585366     -2.760957170733      9.941155177575
H             3.590476847777     -3.501753695553      9.623582658809
H             1.877095359551      1.774109280898      8.638171907134
