25
-0.060529643667426
C             0.697092438124      1.206228481101                   0
H             1.238751481843      2.142336379831      0.004928675883
C             1.394066202537                   0                   0
H             2.475325479251      0.000114333064      0.010977564436
C             0.696663336265       -1.2063436648     -0.001377484826
H             1.238021589736     -2.142768045099      0.001261014205
C             -0.69694068372     -1.206903024974     -0.000507818264
H            -1.237799125947      -2.14373787832      -0.00169760104
C            -1.394117326826      0.000170803848      0.001981006868
H            -2.475865900014      0.000265443726      0.001461018677
C             -0.69676396638      1.206847404824      -9.5703779e-05
H            -1.237425243665      2.143795338383     -0.000181194041
C              5.78518920472      1.186635173423              4.7496
C             6.985198232838      0.475911779665              4.7491
C             8.200726269525      1.161268097231              4.7487
C             8.215785470473      2.557151398394              4.7491
C             7.015887211871      3.270466650582              4.7497
C             5.808868467327      2.576848859344              4.7496
H             4.835727414166      0.659319112339              4.7499
H             6.971640734949     -0.610570495502              4.7489
H             9.164135787356       3.08834233061              4.7492
H             7.042646822226      4.355215655308              4.7501
O             4.613042829267      3.232618097231              4.7491
H             4.786246304447       4.18801531629              4.7448
H             9.135909280898      0.607252587305              4.7481
