24
-0.53496861625508
C             0.697092438124      1.206228481101                   0
H             1.238751481843      2.142336379831      0.004928675883
C             1.394066202537                   0                   0
H             2.475325479251      0.000114333064      0.010977564436
C             0.696663336265       -1.2063436648     -0.001377484826
H             1.238021589736     -2.142768045099      0.001261014205
C             -0.69694068372     -1.206903024974     -0.000507818264
H            -1.237799125947      -2.14373787832      -0.00169760104
C            -1.394117326826      0.000170803848      0.001981006868
H            -2.475865900014      0.000265443726      0.001461018677
C             -0.69676396638      1.206847404824      -9.5703779e-05
H            -1.237425243665      2.143795338383     -0.000181194041
C             2.697092438124      1.924024625079      6.775348722103
H             3.238751481843      2.637956787271      7.380842865508
C             3.394066202537                 1.0                 6.0
H             4.475325479251      0.993031341804      6.008482794112
C             2.696663336265      0.076772569267      5.223522024646
H             3.238021589736     -0.642266118148      4.623621243103
C              1.30305931628      0.075785063623      5.223828678094
H             0.762200874053     -0.641107292276      4.620731415557
C             0.605882673174      0.998857476669        6.0016273299
H            -0.475865900014      0.999264216988      6.001289829177
C              1.30323603362      1.924560265361      6.775673245255
H             0.762574756335      2.642358975437      7.377866278528
