25
-0.969936958998464
C             0.697092438124      1.206228481101                   0
H             1.238751481843      2.142336379831      0.004928675883
C             1.394066202537                   0                   0
H             2.475325479251      0.000114333064      0.010977564436
C             0.696663336265       -1.2063436648     -0.001377484826
H             1.238021589736     -2.142768045099      0.001261014205
C             -0.69694068372     -1.206903024974     -0.000507818264
H            -1.237799125947      -2.14373787832      -0.00169760104
C            -1.394117326826      0.000170803848      0.001981006868
H            -2.475865900014      0.000265443726      0.001461018677
C             -0.69676396638      1.206847404824      -9.5703779e-05
H            -1.237425243665      2.143795338383     -0.000181194041
C              1.11189460236       0.40301079528      4.620764825604
C             1.704399116419     -0.812498232838      4.962270116023
C             2.913013134762     -0.826726269525      5.659601864644
C             3.528542735236      0.374614529527      6.015439925388
C             2.937193605935      1.592312788129      5.674717166724
C             1.731634233664      1.595131532673      4.978571668565
H             0.171313707083      0.421072585834      4.078066602683
H             1.223870367475     -1.746640734949      4.684605773359
H             4.469767893678      0.360464212644      6.558971994036
H             3.426773411113      2.518353177774      5.957838079248
O             1.118971414634      2.760957170733      4.624273274806
H             1.664723152223      3.501753695553      4.934397975099
H             3.374804640449     -1.774109280898      5.925524494439
