24
-0.43909208089458
C             0.697092438124      1.206228481101                   0
H             1.238751481843      2.142336379831      0.004928675883
C             1.394066202537                   0                   0
H             2.475325479251      0.000114333064      0.010977564436
C             0.696663336265       -1.2063436648     -0.001377484826
H             1.238021589736     -2.142768045099      0.001261014205
C             -0.69694068372     -1.206903024974     -0.000507818264
H            -1.237799125947      -2.14373787832      -0.00169760104
C            -1.394117326826      0.000170803848      0.001981006868
H            -2.475865900014      0.000265443726      0.001461018677
C             -0.69676396638      1.206847404824      -9.5703779e-05
H            -1.237425243665      2.143795338383     -0.000181194041
C             6.242498182121      2.871903658271                 4.0
H             6.431323430794      3.936815646733      4.004928675883
C             7.309993723411      1.976798722397                 4.0
H             8.326005982685      2.346718613128      4.010977564436
C             7.067243229395      0.604680654175      3.998622515174
H             7.896229586147     -0.090114998474      4.001261014205
C             5.757875127965      0.127514380892      3.999492181736
H             5.570050831728     -0.937806899621       3.99830239896
C             4.689899817115      1.023344295182      4.001981006868
H               3.6733562966      0.653453425533      4.001461018677
C             4.932489919993      2.395758289082      3.999904296221
H             4.103979440859      3.091284300761      3.999818805959
