25
-0.120875489887843
C             0.697092438124      1.206228481101                   0
H             1.238751481843      2.142336379831      0.004928675883
C             1.394066202537                   0                   0
H             2.475325479251      0.000114333064      0.010977564436
C             0.696663336265       -1.2063436648     -0.001377484826
H             1.238021589736     -2.142768045099      0.001261014205
C             -0.69694068372     -1.206903024974     -0.000507818264
H            -1.237799125947      -2.14373787832      -0.00169760104
C            -1.394117326826      0.000170803848      0.001981006868
H            -2.475865900014      0.000265443726      0.001461018677
C             -0.69676396638      1.206847404824      -9.5703779e-05
H            -1.237425243665      2.143795338383     -0.000181194041
C             8.538847238892              2.8118       1.56588920472
C              7.84111422619              2.8273      2.773398232838
C             7.485767816029               1.626      3.388076269525
C              7.82856422619              0.4096      2.795135470473
C             8.526983841433              0.3918      1.586637211871
C             8.876147238892               1.596      0.981668467327
H             8.818407046514              3.7432      1.082277414166
H              7.57519102111               3.775      3.233590734949
H             7.550800828731             -0.5246      3.276435787356
H             8.786930251594              -0.561      1.137196822226
O              9.55746422619               1.626     -0.199407170733
H             9.717590316954               0.712     -0.485353695553
H             6.941798200787              1.6382      4.329059280898
