24
-0.688927886662068
C             0.697092438124      1.206228481101                   0
H             1.238751481843      2.142336379831      0.004928675883
C             1.394066202537                   0                   0
H             2.475325479251      0.000114333064      0.010977564436
C             0.696663336265       -1.2063436648     -0.001377484826
H             1.238021589736     -2.142768045099      0.001261014205
C             -0.69694068372     -1.206903024974     -0.000507818264
H            -1.237799125947      -2.14373787832      -0.00169760104
C            -1.394117326826      0.000170803848      0.001981006868
H            -2.475865900014      0.000265443726      0.001461018677
C             -0.69676396638      1.206847404824      -9.5703779e-05
H            -1.237425243665      2.143795338383     -0.000181194041
C             6.697092438124       0.91255443799      4.633484002672
H             7.238751481843      1.228090755324        5.5148233938
C             7.394066202537                 0.5                 3.5
H             8.475325479251      0.489723567916      3.503861986098
C             6.696663336265      0.088700579191      2.365936632498
H             7.238021589736     -0.234054799642      1.486887972224
C              5.30305931628      0.087692047494      2.365708449352
H             4.762200874053     -0.231606313225      1.484964721092
C             4.605882673174      0.498196880821      3.500838047368
H             3.524134099986      0.498717878632      3.500749133328
C              5.30323603362      0.912856054505      4.634032868108
H             4.762574756335      1.233391455598      5.514446687942
