28
-0.67694560228988
C             0.697092438124      1.206228481101                   0
H             1.238751481843      2.142336379831      0.004928675883
C             1.394066202537                   0                   0
H             2.475325479251      0.000114333064      0.010977564436
C             0.696663336265       -1.2063436648     -0.001377484826
H             1.238021589736     -2.142768045099      0.001261014205
C             -0.69694068372     -1.206903024974     -0.000507818264
H            -1.237799125947      -2.14373787832      -0.00169760104
C            -1.394117326826      0.000170803848      0.001981006868
H            -2.475865900014      0.000265443726      0.001461018677
C             -0.69676396638      1.206847404824      -9.5703779e-05
H            -1.237425243665      2.143795338383     -0.000181194041
C            -0.586302053215      1.273820967896      4.777055372185
C            -1.363574010605      0.153793451063      5.095069796844
C            -0.810687029604     -1.107555279147      5.318436005648
C              0.58544534776     -1.262618142755      5.220547697332
C              1.37749458985     -0.152814646849      4.903414608584
C             0.797623155814      1.095373649792      4.685476519407
H            -1.034130482416      2.247145509055      4.606697934494
H             1.044416216089     -2.232039724416      5.388992974606
H             2.455754288406     -0.268490114334      4.826959825251
C            -1.886425773062      -1.99029698074      5.612830618699
C            -3.053002010651      -1.26168985577      5.563795603302
H             -4.08290090948      -1.55031809855      5.724118068229
N            -2.726064649793      0.031189280614      5.250430391961
H            -3.384211615212      0.790746837041      5.146602482014
H              1.43063786148      1.945124353282      4.440168859863
H            -1.810791320527      -3.04614367478      5.836382574124
