24
-0.364280959938417
C             0.697092438124      1.206228481101                   0
H             1.238751481843      2.142336379831      0.004928675883
C             1.394066202537                   0                   0
H             2.475325479251      0.000114333064      0.010977564436
C             0.696663336265       -1.2063436648     -0.001377484826
H             1.238021589736     -2.142768045099      0.001261014205
C             -0.69694068372     -1.206903024974     -0.000507818264
H            -1.237799125947      -2.14373787832      -0.00169760104
C            -1.394117326826      0.000170803848      0.001981006868
H            -2.475865900014      0.000265443726      0.001461018677
C             -0.69676396638      1.206847404824      -9.5703779e-05
H            -1.237425243665      2.143795338383     -0.000181194041
C             5.500585519651      1.067230693324      5.895512881149
H             5.501622062336      1.892557088795      6.594477884615
C             6.707296745954      0.533958333897      5.448044241037
H             7.643637581134      0.941124271891       5.80402722207
C             6.706499979491       -0.5325822446      4.551312256252
H             7.643542169694     -0.948162993477      4.206042919013
C             5.499883175455     -1.067293650541       4.10377138181
H             5.499903451308     -1.895198983845      3.407523170876
C             4.292573577189      -0.53513796865      4.553551948683
H             3.355704512361      -0.94907468294      4.205539008017
C             4.293161002261       0.53382483657      5.447807291068
H              3.35646063451      0.948378832945      5.795547796919
