28
-0.842741323978766
C             0.697092438124      1.206228481101                   0
H             1.238751481843      2.142336379831      0.004928675883
C             1.394066202537                   0                   0
H             2.475325479251      0.000114333064      0.010977564436
C             0.696663336265       -1.2063436648     -0.001377484826
H             1.238021589736     -2.142768045099      0.001261014205
C             -0.69694068372     -1.206903024974     -0.000507818264
H            -1.237799125947      -2.14373787832      -0.00169760104
C            -1.394117326826      0.000170803848      0.001981006868
H            -2.475865900014      0.000265443726      0.001461018677
C             -0.69676396638      1.206847404824      -9.5703779e-05
H            -1.237425243665      2.143795338383     -0.000181194041
C             3.222944627815      0.129158011573      3.603687655321
C             2.904930203156     -1.103993007593      4.185023959141
C             2.681563994352     -1.255853201729      5.553827493035
C             2.779452302668      -0.12429852769      6.386182060785
C             3.096585391416      1.116537984961      5.821088661167
C             3.314523480593      1.238448740478      4.450190170551
H             3.393302065506      0.227989485927       2.53684966195
H             2.611007025394     -0.211528886951      7.455211211645
H             3.173040174749      1.992500542045      6.460396403881
C             2.387169381301     -2.628841132195      5.780434859865
C             2.436204396698     -3.274822226914      4.566154461468
H             2.275881931771     -4.311054958019      4.301164402551
N             2.749569608039     -2.345246598773      3.609956965766
H             2.853397517986     -2.535439812035      2.623087343554
H             3.559831140137      2.211530908298      4.030791827278
H             2.163617425876     -3.091263121919      6.732642145673
