25
-0.447167933481303
C             0.697092438124      1.206228481101                   0
H             1.238751481843      2.142336379831      0.004928675883
C             1.394066202537                   0                   0
H             2.475325479251      0.000114333064      0.010977564436
C             0.696663336265       -1.2063436648     -0.001377484826
H             1.238021589736     -2.142768045099      0.001261014205
C             -0.69694068372     -1.206903024974     -0.000507818264
H            -1.237799125947      -2.14373787832      -0.00169760104
C            -1.394117326826      0.000170803848      0.001981006868
H            -2.475865900014      0.000265443726      0.001461018677
C             -0.69676396638      1.206847404824      -9.5703779e-05
H            -1.237425243665      2.143795338383     -0.000181194041
C                     6.8118             -0.5114              4.7496
C                     6.8273              0.8832              4.7491
C                      5.626              1.5932              4.7487
C                     4.4096              0.9083              4.7491
C                     4.3918             -0.4875              4.7497
C                      5.596              -1.186              4.7496
H                     7.7432               -1.07              4.7499
H                      7.775              1.4147              4.7489
H                     3.4754               1.464              4.7492
H                      3.439             -1.0067              4.7501
O                      5.626             -2.5495              4.7491
H                      4.712             -2.8772              4.7448
H                     5.6382              2.6801              4.7481
