25
-0.0399228128916071
C             0.697092438124      1.206228481101                   0
H             1.238751481843      2.142336379831      0.004928675883
C             1.394066202537                   0                   0
H             2.475325479251      0.000114333064      0.010977564436
C             0.696663336265       -1.2063436648     -0.001377484826
H             1.238021589736     -2.142768045099      0.001261014205
C             -0.69694068372     -1.206903024974     -0.000507818264
H            -1.237799125947      -2.14373787832      -0.00169760104
C            -1.394117326826      0.000170803848      0.001981006868
H            -2.475865900014      0.000265443726      0.001461018677
C             -0.69676396638      1.206847404824      -9.5703779e-05
H            -1.237425243665      2.143795338383     -0.000181194041
C             9.324764826577       2.59698920472              3.7496
C             8.640888220335      3.812498232838              3.7491
C             7.245531902769      3.826726269525              3.7487
C             6.534548601606      2.625385470473              3.7491
C             7.217033349418      1.407687211871              3.7497
C             8.609151140656      1.404868467327              3.7496
H            10.410680887661      2.578927414166              3.7499
H             9.195870495502      4.746640734949              3.7489
H              5.44765766939      2.639535787356              3.7492
H             6.651484344692      0.481646822226              3.7501
O             9.316881902769      0.239042829267              3.7491
H              8.68918468371     -0.501753695553              3.7448
H             6.712647412695      4.774109280898              3.7481
