28
-0.276818128011442
C             0.697092438124      1.206228481101                   0
H             1.238751481843      2.142336379831      0.004928675883
C             1.394066202537                   0                   0
H             2.475325479251      0.000114333064      0.010977564436
C             0.696663336265       -1.2063436648     -0.001377484826
H             1.238021589736     -2.142768045099      0.001261014205
C             -0.69694068372     -1.206903024974     -0.000507818264
H            -1.237799125947      -2.14373787832      -0.00169760104
C            -1.394117326826      0.000170803848      0.001981006868
H            -2.475865900014      0.000265443726      0.001461018677
C             -0.69676396638      1.206847404824      -9.5703779e-05
H            -1.237425243665      2.143795338383     -0.000181194041
C             1.812961803642      1.144662956323      6.211929434407
C             0.477365323313      1.257786458656      5.808033874326
C            -0.340922243262      0.148297922582      5.593516409051
C             0.196267816111     -1.138319615065      5.790631552123
C             1.530154364764      -1.26935263181      6.194557561741
C             2.324172935432     -0.143075090686      6.401331168351
H             2.434218530244      2.019156023128      6.373900347728
H            -0.416280792987     -2.020510837465      5.631480300124
H              1.94852530123     -2.260990656379      6.347821755054
C            -1.615984365817      0.638544151455      5.197296567547
C            -1.550153842993      2.013132371144      5.178683078942
H            -2.292745562399      2.760736859469       4.93507198641
N             -0.28224385506      2.376435879387      5.548868273538
H             0.054352271496      3.326186649076      5.623311994299
H             3.358243200858     -0.266406555016      6.715095027913
H            -2.486894685411      0.045119447139      4.952611823374
