24
-0.420040907665583
C             0.697092438124      1.206228481101                   0
H             1.238751481843      2.142336379831      0.004928675883
C             1.394066202537                   0                   0
H             2.475325479251      0.000114333064      0.010977564436
C             0.696663336265       -1.2063436648     -0.001377484826
H             1.238021589736     -2.142768045099      0.001261014205
C             -0.69694068372     -1.206903024974     -0.000507818264
H            -1.237799125947      -2.14373787832      -0.00169760104
C            -1.394117326826      0.000170803848      0.001981006868
H            -2.475865900014      0.000265443726      0.001461018677
C             -0.69676396638      1.206847404824      -9.5703779e-05
H            -1.237425243665      2.143795338383     -0.000181194041
C             7.697092438124      1.103114240551      4.044624507402
H             8.238751481843      1.566899831394      4.857782066327
C             8.394066202537                 0.5                 3.0
H             9.475325479251      0.490550316859      3.005587797556
C             7.696663336265     -0.101978895547      1.954586998176
H             8.238021589736     -0.572476092886      1.144938945629
C              6.30305931628      -0.10301172897      1.954537411336
H             5.762200874053     -0.570398773534        1.1426197378
C             5.605882673174      0.498369799651      3.001138423905
H             4.524134099986      0.498867442573      3.000960390348
C              6.30323603362      1.103506584316      4.045112659179
H             5.762574756335      1.572054587834      4.856490626534
