24
-0.120107544383671
C             0.697092438124      1.206228481101                   0
H             1.238751481843      2.142336379831      0.004928675883
C             1.394066202537                   0                   0
H             2.475325479251      0.000114333064      0.010977564436
C             0.696663336265       -1.2063436648     -0.001377484826
H             1.238021589736     -2.142768045099      0.001261014205
C             -0.69694068372     -1.206903024974     -0.000507818264
H            -1.237799125947      -2.14373787832      -0.00169760104
C            -1.394117326826      0.000170803848      0.001981006868
H            -2.475865900014      0.000265443726      0.001461018677
C             -0.69676396638      1.206847404824      -9.5703779e-05
H            -1.237425243665      2.143795338383     -0.000181194041
C             5.697092438124                 1.0      4.206228481101
H             6.238751481843      0.995071324117      5.142336379831
C             6.394066202537                 1.0                 3.0
H             7.475325479251      0.989022435564      3.000114333064
C             5.696663336265      1.001377484826        1.7936563352
H             6.238021589736      0.998738985795      0.857231954901
C              4.30305931628      1.000507818264      1.793096975026
H             3.762200874053       1.00169760104       0.85626212168
C             3.605882673174      0.998018993132      3.000170803848
H             2.524134099986      0.998538981323      3.000265443726
C              4.30323603362      1.000095703779      4.206847404824
H             3.762574756335      1.000181194041      5.143795338383
