24
-0.385601519471991
C             0.697092438124      1.206228481101                   0
H             1.238751481843      2.142336379831      0.004928675883
C             1.394066202537                   0                   0
H             2.475325479251      0.000114333064      0.010977564436
C             0.696663336265       -1.2063436648     -0.001377484826
H             1.238021589736     -2.142768045099      0.001261014205
C             -0.69694068372     -1.206903024974     -0.000507818264
H            -1.237799125947      -2.14373787832      -0.00169760104
C            -1.394117326826      0.000170803848      0.001981006868
H            -2.475865900014      0.000265443726      0.001461018677
C             -0.69676396638      1.206847404824      -9.5703779e-05
H            -1.237425243665      2.143795338383     -0.000181194041
C             4.242498182121      1.289167744106      5.969218685831
H             4.431323430794      2.288171975019      6.338071477111
C             5.309993723411      0.448044241037      5.663074767372
H             6.326005982685      0.791900684476      5.799910357713
C             5.067243229395     -0.840853854961      5.192488336692
H             5.896229586147     -1.494650622526      4.957333606061
C             3.757875127965     -1.289540924335      5.030105078765
H             3.570050831728     -2.290208540724      4.664625711621
C             2.689899817115     -0.448587392726      5.338835685057
H               1.6733562966     -0.795993266996      5.211836927738
C             2.932489919993      0.841770186879      5.806277446282
H             2.103979440859      1.495380087009      6.044081017915
