24
-0.0732581617194424
C             0.697092438124      1.206228481101                   0
H             1.238751481843      2.142336379831      0.004928675883
C             1.394066202537                   0                   0
H             2.475325479251      0.000114333064      0.010977564436
C             0.696663336265       -1.2063436648     -0.001377484826
H             1.238021589736     -2.142768045099      0.001261014205
C             -0.69694068372     -1.206903024974     -0.000507818264
H            -1.237799125947      -2.14373787832      -0.00169760104
C            -1.394117326826      0.000170803848      0.001981006868
H            -2.475865900014      0.000265443726      0.001461018677
C             -0.69676396638      1.206847404824      -9.5703779e-05
H            -1.237425243665      2.143795338383     -0.000181194041
C             1.977042660038      1.289066069686      6.727297128001
H             2.347919255067      2.288720157697      6.908567823746
C             2.872887204471      0.238399361199      6.542036239563
H             3.937699869467      0.421510239036      6.585470538849
C             2.395558833826     -1.050592307583      6.313353495699
H             3.091301026163     -1.866660494605       6.17213785836
C              1.02322392219     -1.289606140325      6.272091990794
H             0.653262000061     -2.290477603644      6.094403210497
C             0.127032788156     -0.238586448718      6.459942338952
H            -0.938298027572     -0.423394268601      6.426827724213
C              0.60425459132       1.05131946574       6.68527880699
H            -0.090892127535      1.867571283587      6.829119216442
