24
-0.442830026511866
C             0.697092438124      1.206228481101                   0
H             1.238751481843      2.142336379831      0.004928675883
C             1.394066202537                   0                   0
H             2.475325479251      0.000114333064      0.010977564436
C             0.696663336265       -1.2063436648     -0.001377484826
H             1.238021589736     -2.142768045099      0.001261014205
C             -0.69694068372     -1.206903024974     -0.000507818264
H            -1.237799125947      -2.14373787832      -0.00169760104
C            -1.394117326826      0.000170803848      0.001981006868
H            -2.475865900014      0.000265443726      0.001461018677
C             -0.69676396638      1.206847404824      -9.5703779e-05
H            -1.237425243665      2.143795338383     -0.000181194041
C             6.197092438124                 0.5      6.206228481101
H             6.738751481843      0.495071324117      7.142336379831
C             6.894066202537                 0.5                 5.0
H             7.975325479251      0.489022435564      5.000114333064
C             6.196663336265      0.501377484826        3.7936563352
H             6.738021589736      0.498738985795      2.857231954901
C              4.80305931628      0.500507818264      3.793096975026
H             4.262200874053       0.50169760104       2.85626212168
C             4.105882673174      0.498018993132      5.000170803848
H             3.024134099986      0.498538981323      5.000265443726
C              4.80323603362      0.500095703779      6.206847404824
H             4.262574756335      0.500181194041      7.143795338383
