28
-0.332054733274021
C             0.697092438124      1.206228481101                   0
H             1.238751481843      2.142336379831      0.004928675883
C             1.394066202537                   0                   0
H             2.475325479251      0.000114333064      0.010977564436
C             0.696663336265       -1.2063436648     -0.001377484826
H             1.238021589736     -2.142768045099      0.001261014205
C             -0.69694068372     -1.206903024974     -0.000507818264
H            -1.237799125947      -2.14373787832      -0.00169760104
C            -1.394117326826      0.000170803848      0.001981006868
H            -2.475865900014      0.000265443726      0.001461018677
C             -0.69676396638      1.206847404824      -9.5703779e-05
H            -1.237425243665      2.143795338383     -0.000181194041
C             5.108768116335      2.129158011573      5.097769648202
C              5.67484483877      0.896006992407      4.753324853282
C             6.552687416888      0.744146798271      3.679589324541
C             6.884090939028       1.87570147231      2.909804969756
C             6.326898927983      3.116537984961      3.240623664962
C             5.452709760995      3.238448740478      4.318887539257
H             4.427815250886      2.227989485927      5.936499733339
H             7.564483403725      1.788471113049      2.068221206362
H             6.580341014733      3.992500542045      2.648739527269
C             6.920944313943     -0.628841132195      3.630538894707
C             6.271338545736     -1.274822226914      4.657619059338
H             6.277686843701     -2.311054958019      4.967268414574
N             5.521857564201     -0.345246598773      5.329027775981
H             4.938505145459     -0.535439812035      6.131767984066
H             5.030567924451      4.211530908298      4.559443329064
H             7.590649629311     -1.091263121919      2.917679173242
