28
-0.0409511118445714
C             0.697092438124      1.206228481101                   0
H             1.238751481843      2.142336379831      0.004928675883
C             1.394066202537                   0                   0
H             2.475325479251      0.000114333064      0.010977564436
C             0.696663336265       -1.2063436648     -0.001377484826
H             1.238021589736     -2.142768045099      0.001261014205
C             -0.69694068372     -1.206903024974     -0.000507818264
H            -1.237799125947      -2.14373787832      -0.00169760104
C            -1.394117326826      0.000170803848      0.001981006868
H            -2.475865900014      0.000265443726      0.001461018677
C             -0.69676396638      1.206847404824      -9.5703779e-05
H            -1.237425243665      2.143795338383     -0.000181194041
C             7.891231883665      2.870841988427      5.097769648202
C              7.32515516123      4.103993007593      4.753324853282
C             6.447312583112      4.255853201729      3.679589324541
C             6.115909060972       3.12429852769      2.909804969756
C             6.673101072017      1.883462015039      3.240623664962
C             7.547290239005      1.761551259522      4.318887539257
H             8.572184749114      2.772010514073      5.936499733339
H             5.435516596275      3.211528886951      2.068221206362
H             6.419658985267      1.007499457955      2.648739527269
C             6.079055686057      5.628841132195      3.630538894707
C             6.728661454264      6.274822226914      4.657619059338
H             6.722313156299      7.311054958019      4.967268414574
N             7.478142435799      5.345246598773      5.329027775981
H             8.061494854541      5.535439812035      6.131767984066
H             7.969432075549      0.788469091702      4.559443329064
H             5.409350370689      6.091263121919      2.917679173242
