25
-0.206136769257704
C             0.697092438124      1.206228481101                   0
H             1.238751481843      2.142336379831      0.004928675883
C             1.394066202537                   0                   0
H             2.475325479251      0.000114333064      0.010977564436
C             0.696663336265       -1.2063436648     -0.001377484826
H             1.238021589736     -2.142768045099      0.001261014205
C             -0.69694068372     -1.206903024974     -0.000507818264
H            -1.237799125947      -2.14373787832      -0.00169760104
C            -1.394117326826      0.000170803848      0.001981006868
H            -2.475865900014      0.000265443726      0.001461018677
C             -0.69676396638      1.206847404824      -9.5703779e-05
H            -1.237425243665      2.143795338383     -0.000181194041
C                     5.2504      -0.21481079528      4.813364826577
C                     5.2509      0.985198232838      5.524088220335
C                     5.2513      2.200726269525      4.838731902769
C                     5.2509      2.215785470473      3.442848601606
C                     5.2503      1.015887211871      2.729533349418
C                     5.2504     -0.191131532673      3.423151140656
H                     5.2501     -1.164272585834      5.340680887661
H                     5.2511      0.971640734949      6.610570495502
H                     5.2508      3.164135787356       2.91165766939
H                     5.2499      1.042646822226      1.644784344692
O                     5.2509     -1.386957170733      2.767381902769
H                     5.2552     -1.213753695553       1.81198468371
H                     5.2519      3.135909280898      5.392747412695
