24
-0.229896581790636
C             0.697092438124      1.206228481101                   0
H             1.238751481843      2.142336379831      0.004928675883
C             1.394066202537                   0                   0
H             2.475325479251      0.000114333064      0.010977564436
C             0.696663336265       -1.2063436648     -0.001377484826
H             1.238021589736     -2.142768045099      0.001261014205
C             -0.69694068372     -1.206903024974     -0.000507818264
H            -1.237799125947      -2.14373787832      -0.00169760104
C            -1.394117326826      0.000170803848      0.001981006868
H            -2.475865900014      0.000265443726      0.001461018677
C             -0.69676396638      1.206847404824      -9.5703779e-05
H            -1.237425243665      2.143795338383     -0.000181194041
C             5.477042660038      1.341378121899      7.002715399504
H             5.847919255067      1.990639023837      7.784142070425
C             6.372887204471       0.65560413194      6.185441783262
H             7.437699869467      0.767956172966      6.336415790344
C             5.895558833826     -0.184826338851      5.181712764406
H             6.591301026163     -0.719199176751      4.548976790864
C              4.52322392219     -0.341399173142      4.996469487629
H             4.153262000061     -0.993895049538      4.217004209367
C             3.627032788156      0.342980744951      5.815953638275
H             2.561701972428      0.222695405538      5.671794194874
C              4.10425459132      1.186262513202      6.817706926922
H             3.409107872465      1.719088849482      7.452571628175
