28
-0.0882772758485503
C             0.697092438124      1.206228481101                   0
H             1.238751481843      2.142336379831      0.004928675883
C             1.394066202537                   0                   0
H             2.475325479251      0.000114333064      0.010977564436
C             0.696663336265       -1.2063436648     -0.001377484826
H             1.238021589736     -2.142768045099      0.001261014205
C             -0.69694068372     -1.206903024974     -0.000507818264
H            -1.237799125947      -2.14373787832      -0.00169760104
C            -1.394117326826      0.000170803848      0.001981006868
H            -2.475865900014      0.000265443726      0.001461018677
C             -0.69676396638      1.206847404824      -9.5703779e-05
H            -1.237425243665      2.143795338383     -0.000181194041
C             5.108768116335      3.129158011573      6.097769648202
C              5.67484483877      1.896006992407      5.753324853282
C             6.552687416888      1.744146798271      4.679589324541
C             6.884090939028       2.87570147231      3.909804969756
C             6.326898927983      4.116537984961      4.240623664962
C             5.452709760995      4.238448740478      5.318887539257
H             4.427815250886      3.227989485927      6.936499733339
H             7.564483403725      2.788471113049      3.068221206362
H             6.580341014733      4.992500542045      3.648739527269
C             6.920944313943      0.371158867805      4.630538894707
C             6.271338545736     -0.274822226914      5.657619059338
H             6.277686843701     -1.311054958019      5.967268414574
N             5.521857564201      0.654753401227      6.329027775981
H             4.938505145459      0.464560187965      7.131767984066
H             5.030567924451      5.211530908298      5.559443329064
H             7.590649629311     -0.091263121919      3.917679173242
