25
-0.586117376844105
C             0.697092438124      1.206228481101                   0
H             1.238751481843      2.142336379831      0.004928675883
C             1.394066202537                   0                   0
H             2.475325479251      0.000114333064      0.010977564436
C             0.696663336265       -1.2063436648     -0.001377484826
H             1.238021589736     -2.142768045099      0.001261014205
C             -0.69694068372     -1.206903024974     -0.000507818264
H            -1.237799125947      -2.14373787832      -0.00169760104
C            -1.394117326826      0.000170803848      0.001981006868
H            -2.475865900014      0.000265443726      0.001461018677
C             -0.69676396638      1.206847404824      -9.5703779e-05
H            -1.237425243665      2.143795338383     -0.000181194041
C                     2.2504     -1.324764826577       7.59698920472
C                     2.2509     -0.640888220335      8.812498232838
C                     2.2513      0.754468097231      8.826726269525
C                     2.2509      1.465451398394      7.625385470473
C                     2.2503      0.782966650582      6.407687211871
C                     2.2504     -0.609151140656      6.404868467327
H                     2.2501     -2.410680887661      7.578927414166
H                     2.2511     -1.195870495502      9.746640734949
H                     2.2508       2.55234233061      7.639535787356
H                     2.2499      1.348515655308      5.481646822226
O                     2.2509     -1.316881902769      5.239042829267
H                     2.2552      -0.68918468371      4.498246304447
H                     2.2519      1.287352587305      9.774109280898
