28
-0.0203011711712479
C             0.697092438124      1.206228481101                   0
H             1.238751481843      2.142336379831      0.004928675883
C             1.394066202537                   0                   0
H             2.475325479251      0.000114333064      0.010977564436
C             0.696663336265       -1.2063436648     -0.001377484826
H             1.238021589736     -2.142768045099      0.001261014205
C             -0.69694068372     -1.206903024974     -0.000507818264
H            -1.237799125947      -2.14373787832      -0.00169760104
C            -1.394117326826      0.000170803848      0.001981006868
H            -2.475865900014      0.000265443726      0.001461018677
C             -0.69676396638      1.206847404824      -9.5703779e-05
H            -1.237425243665      2.143795338383     -0.000181194041
C             3.586302053215     -0.273820967896      6.777055372185
C             4.363574010605      0.846206548937      7.095069796844
C             3.810687029604      2.107555279147      7.318436005648
C              2.41455465224      2.262618142755      7.220547697332
C              1.62250541015      1.152814646849      6.903414608584
C             2.202376844186     -0.095373649792      6.685476519407
H             4.034130482416     -1.247145509055      6.606697934494
H             1.955583783911      3.232039724416      7.388992974606
H             0.544245711594      1.268490114334      6.826959825251
C             4.886425773062       2.99029698074      7.612830618699
C             6.053002010651       2.26168985577      7.563795603302
H              7.08290090948       2.55031809855      7.724118068229
N             5.726064649793      0.968810719386      7.250430391961
H             6.384211615212      0.209253162959      7.146602482014
H              1.56936213852     -0.945124353282      6.440168859863
H             4.810791320527       4.04614367478      7.836382574124
