28
-0.00195199224172126
C             0.697092438124      1.206228481101                   0
H             1.238751481843      2.142336379831      0.004928675883
C             1.394066202537                   0                   0
H             2.475325479251      0.000114333064      0.010977564436
C             0.696663336265       -1.2063436648     -0.001377484826
H             1.238021589736     -2.142768045099      0.001261014205
C             -0.69694068372     -1.206903024974     -0.000507818264
H            -1.237799125947      -2.14373787832      -0.00169760104
C            -1.394117326826      0.000170803848      0.001981006868
H            -2.475865900014      0.000265443726      0.001461018677
C             -0.69676396638      1.206847404824      -9.5703779e-05
H            -1.237425243665      2.143795338383     -0.000181194041
C             7.777055372185     -0.586302053215      7.273820967896
C             8.095069796844     -1.363574010605      6.153793451063
C             8.318436005648     -0.810687029604      4.892444720853
C             8.220547697332       0.58544534776      4.737381857245
C             7.903414608584       1.37749458985      5.847185353151
C             7.685476519407      0.797623155814      7.095373649792
H             7.606697934494     -1.034130482416      8.247145509055
H             8.388992974606      1.044416216089      3.767960275584
H             7.826959825251      2.455754288406      5.731509885666
C             8.612830618699     -1.886425773062       4.00970301926
C             8.563795603302     -3.053002010651       4.73831014423
H             8.724118068229      -4.08290090948       4.44968190145
N             8.250430391961     -2.726064649793      6.031189280614
H             8.146602482014     -3.384211615212      6.790746837041
H             7.440168859863       1.43063786148      7.945124353282
H             8.836382574124     -1.810791320527       2.95385632522
