28
-0.184480994444328
C             0.697092438124      1.206228481101                   0
H             1.238751481843      2.142336379831      0.004928675883
C             1.394066202537                   0                   0
H             2.475325479251      0.000114333064      0.010977564436
C             0.696663336265       -1.2063436648     -0.001377484826
H             1.238021589736     -2.142768045099      0.001261014205
C             -0.69694068372     -1.206903024974     -0.000507818264
H            -1.237799125947      -2.14373787832      -0.00169760104
C            -1.394117326826      0.000170803848      0.001981006868
H            -2.475865900014      0.000265443726      0.001461018677
C             -0.69676396638      1.206847404824      -9.5703779e-05
H            -1.237425243665      2.143795338383     -0.000181194041
C             3.222944627815      0.586302053215      9.273820967896
C             2.904930203156      1.363574010605      8.153793451063
C             2.681563994352      0.810687029604      6.892444720853
C             2.779452302668      -0.58544534776      6.737381857245
C             3.096585391416      -1.37749458985      7.847185353151
C             3.314523480593     -0.797623155814      9.095373649792
H             3.393302065506      1.034130482416     10.247145509055
H             2.611007025394     -1.044416216089      5.767960275584
H             3.173040174749     -2.455754288406      7.731509885666
C             2.387169381301      1.886425773062       6.00970301926
C             2.436204396698      3.053002010651       6.73831014423
H             2.275881931771       4.08290090948       6.44968190145
N             2.749569608039      2.726064649793      8.031189280614
H             2.853397517986      3.384211615212      8.790746837041
H             3.559831140137      -1.43063786148      9.945124353282
H             2.163617425876      1.810791320527       4.95385632522
