25
-0.527117851141873
C             0.697092438124      1.206228481101                   0
H             1.238751481843      2.142336379831      0.004928675883
C             1.394066202537                   0                   0
H             2.475325479251      0.000114333064      0.010977564436
C             0.696663336265       -1.2063436648     -0.001377484826
H             1.238021589736     -2.142768045099      0.001261014205
C             -0.69694068372     -1.206903024974     -0.000507818264
H            -1.237799125947      -2.14373787832      -0.00169760104
C            -1.394117326826      0.000170803848      0.001981006868
H            -2.475865900014      0.000265443726      0.001461018677
C             -0.69676396638      1.206847404824      -9.5703779e-05
H            -1.237425243665      2.143795338383     -0.000181194041
C              0.82959460236      -2.21481079528      6.189829652181
C             1.445349116419     -1.014801767162      6.544758336358
C             0.852013134762      0.200726269525      6.201733767413
C            -0.357057264764      0.215785470473      5.504138526993
C            -0.975106394065     -0.984112788129      5.148000516142
C            -0.374365766336     -2.191131532673       5.49472280922
H             1.286113707083     -3.164272585834      6.453747490344
H             2.386370367475     -1.028359265051      7.087826268861
H            -0.817132106322      1.164135787356      5.238629663426
H            -1.914726588887     -0.957353177774      4.605972423941
O            -0.942028585366     -3.386957170733      5.166405177575
H            -1.767276847777     -3.213753695553      4.684982658809
H             1.332104640449      1.135909280898      6.478221907134
