28
-0.300094131121077
C             0.697092438124      1.206228481101                   0
H             1.238751481843      2.142336379831      0.004928675883
C             1.394066202537                   0                   0
H             2.475325479251      0.000114333064      0.010977564436
C             0.696663336265       -1.2063436648     -0.001377484826
H             1.238021589736     -2.142768045099      0.001261014205
C             -0.69694068372     -1.206903024974     -0.000507818264
H            -1.237799125947      -2.14373787832      -0.00169760104
C            -1.394117326826      0.000170803848      0.001981006868
H            -2.475865900014      0.000265443726      0.001461018677
C             -0.69676396638      1.206847404824      -9.5703779e-05
H            -1.237425243665      2.143795338383     -0.000181194041
C             7.257654717112      2.396312344679      6.000381805217
C             6.365670637004      1.814976040859      5.091448908246
C             6.096299728765      0.446172506965      5.071617226703
C             6.746850827519     -0.386182060785      6.002628166033
C             7.641914395081      0.178911338833      6.918657563559
C             7.891609694519      1.549809829449      6.915266330242
H             7.454604323053       3.46315033805      6.000793653856
H             6.557357758622     -1.455211211645      6.011307097569
H              8.14610745823     -0.460396403881      7.639035999091
C             5.154852549892      0.219565140135      4.029772106355
C             4.874327571541      1.433845538532      3.445818560266
H             4.217367878565      1.698835597449      2.628575923359
N             5.610497619296      2.390043034234      4.094172063304
H             5.605318620301      3.376912656446      3.877545954018
H             8.590593443337      1.969208172722      7.635326377772
H             4.730039882566     -0.732642145673      3.741078893698
