24
-1.06108000571887
C             0.697092438124      1.206228481101                   0
H             1.238751481843      2.142336379831      0.004928675883
C             1.394066202537                   0                   0
H             2.475325479251      0.000114333064      0.010977564436
C             0.696663336265       -1.2063436648     -0.001377484826
H             1.238021589736     -2.142768045099      0.001261014205
C             -0.69694068372     -1.206903024974     -0.000507818264
H            -1.237799125947      -2.14373787832      -0.00169760104
C            -1.394117326826      0.000170803848      0.001981006868
H            -2.475865900014      0.000265443726      0.001461018677
C             -0.69676396638      1.206847404824      -9.5703779e-05
H            -1.237425243665      2.143795338383     -0.000181194041
C             5.477042660038      1.154475995819      5.133585677093
H             5.847919255067      1.658179848389      6.015883693479
C             6.372887204471      0.621038527809      4.209644879838
H             7.437699869467      0.705467327673      4.377834979697
C             5.895558833826     -0.032328200699      3.075225540436
H             6.591301026163     -0.448709265711      2.359309378587
C              4.52322392219     -0.154355184382      2.865607937926
H             4.153262000061     -0.661585457141      1.984679768819
C             3.627032788156      0.377325535576      3.791483608561
H             2.561701972428      0.283900625387      3.628626941041
C              4.10425459132      1.033843325878      4.924452356144
H             3.409107872465      1.448331734417      5.642196358359
