28
-0.0880953610156418
C             0.697092438124      1.206228481101                   0
H             1.238751481843      2.142336379831      0.004928675883
C             1.394066202537                   0                   0
H             2.475325479251      0.000114333064      0.010977564436
C             0.696663336265       -1.2063436648     -0.001377484826
H             1.238021589736     -2.142768045099      0.001261014205
C             -0.69694068372     -1.206903024974     -0.000507818264
H            -1.237799125947      -2.14373787832      -0.00169760104
C            -1.394117326826      0.000170803848      0.001981006868
H            -2.475865900014      0.000265443726      0.001461018677
C             -0.69676396638      1.206847404824      -9.5703779e-05
H            -1.237425243665      2.143795338383     -0.000181194041
C             7.443834772623      0.586302053215      2.785366368021
C             7.159229584731      1.363574010605      3.914345862866
C             6.721996030797      0.810687029604      5.118389010661
C             6.559690837258      -0.58544534776      5.203733235571
C             6.839947273975      -1.37749458985      4.084048670534
C             7.275301500616     -0.797623155814      2.894116852347
H             7.782963174438      1.034130482416      1.857263870405
H             6.220857935694     -1.044416216089      6.127499590904
H             6.715897755625     -2.455754288406      4.145999172304
C              6.53557839364      1.886425773062      6.030063055745
C             6.857416387117      3.053002010651      5.374553268445
H             6.851945593151       4.08290090948      5.704673891405
N             7.232473721625      2.726064649793      4.098204486643
H             7.522334892203      3.384211615212      3.388494392167
H             7.487734187453      -1.43063786148       2.03555732647
H             6.201256719084      1.810791320527      7.056229092999
