25
-0.955318195586518
C             0.697092438124      1.206228481101                   0
H             1.238751481843      2.142336379831      0.004928675883
C             1.394066202537                   0                   0
H             2.475325479251      0.000114333064      0.010977564436
C             0.696663336265       -1.2063436648     -0.001377484826
H             1.238021589736     -2.142768045099      0.001261014205
C             -0.69694068372     -1.206903024974     -0.000507818264
H            -1.237799125947      -2.14373787832      -0.00169760104
C            -1.394117326826      0.000170803848      0.001981006868
H            -2.475865900014      0.000265443726      0.001461018677
C             -0.69676396638      1.206847404824      -9.5703779e-05
H            -1.237425243665      2.143795338383     -0.000181194041
C                     2.1882              2.5114              2.7496
C                     2.1727              1.1168              2.7491
C                      3.374              0.4068              2.7487
C                     4.5904              1.0917              2.7491
C                     4.6082              2.4875              2.7497
C                      3.404               3.186              2.7496
H                     1.2568                3.07              2.7499
H                      1.225              0.5853              2.7489
H                     5.5246               0.536              2.7492
H                      5.561              3.0067              2.7501
O                      3.374              4.5495              2.7491
H                      4.288              4.8772              2.7448
H                     3.3618             -0.6801              2.7481
