28
-0.57366314295744
C             0.697092438124      1.206228481101                   0
H             1.238751481843      2.142336379831      0.004928675883
C             1.394066202537                   0                   0
H             2.475325479251      0.000114333064      0.010977564436
C             0.696663336265       -1.2063436648     -0.001377484826
H             1.238021589736     -2.142768045099      0.001261014205
C             -0.69694068372     -1.206903024974     -0.000507818264
H            -1.237799125947      -2.14373787832      -0.00169760104
C            -1.394117326826      0.000170803848      0.001981006868
H            -2.475865900014      0.000265443726      0.001461018677
C             -0.69676396638      1.206847404824      -9.5703779e-05
H            -1.237425243665      2.143795338383     -0.000181194041
C             0.788070565593     -1.144662956323      6.187038196358
C             1.191966125674     -1.257786458656      7.522634676687
C             1.406483590949     -0.148297922582      8.340922243262
C             1.209368447877      1.138319615065      7.803732183889
C             0.805442438259       1.26935263181      6.469845635236
C             0.598668831649      0.143075090686      5.675827064568
H             0.626099652272     -2.019156023128      5.565781469756
H             1.368519699876      2.020510837465      8.416280792987
H             0.652178244946      2.260990656379       6.05147469877
C             1.802703432453     -0.638544151455      9.615984365817
C             1.821316921058     -2.013132371144      9.550153842993
H              2.06492801359     -2.760736859469     10.292745562399
N             1.451131726462     -2.376435879387       8.28224385506
H             1.376688005701     -3.326186649076      7.945647728504
H             0.284904972087      0.266406555016      4.641756799142
H             2.047388176626     -0.045119447139     10.486894685411
