24
-1.99200611072754
C             0.697092438124      1.206228481101                   0
H             1.238751481843      2.142336379831      0.004928675883
C             1.394066202537                   0                   0
H             2.475325479251      0.000114333064      0.010977564436
C             0.696663336265       -1.2063436648     -0.001377484826
H             1.238021589736     -2.142768045099      0.001261014205
C             -0.69694068372     -1.206903024974     -0.000507818264
H            -1.237799125947      -2.14373787832      -0.00169760104
C            -1.394117326826      0.000170803848      0.001981006868
H            -2.475865900014      0.000265443726      0.001461018677
C             -0.69676396638      1.206847404824      -9.5703779e-05
H            -1.237425243665      2.143795338383     -0.000181194041
C             0.697092438124      0.209459377593      6.687903160092
H             1.238751481843      0.367159010086      7.610645332003
C             1.394066202537                 0.0                 5.5
H             2.475325479251     -0.010790936838      5.502018830147
C             0.696663336265     -0.208122821296      4.311744208378
H             1.238021589736      -0.37332962276      3.390004389098
C             -0.69694068372     -0.209076407544      4.311344362156
H            -1.237799125947       -0.3705843653      3.388535531678
C            -1.394117326826     -0.001921251145      5.500512207186
H            -2.475865900014     -0.001392728701       5.50051511427
C             -0.69676396638      0.209661102393      6.688496062187
H            -1.237425243665      0.372444595097      7.611194806096
