24
-0.207799542620867
C             0.697092438124      1.206228481101                   0
H             1.238751481843      2.142336379831      0.004928675883
C             1.394066202537                   0                   0
H             2.475325479251      0.000114333064      0.010977564436
C             0.696663336265       -1.2063436648     -0.001377484826
H             1.238021589736     -2.142768045099      0.001261014205
C             -0.69694068372     -1.206903024974     -0.000507818264
H            -1.237799125947      -2.14373787832      -0.00169760104
C            -1.394117326826      0.000170803848      0.001981006868
H            -2.475865900014      0.000265443726      0.001461018677
C             -0.69676396638      1.206847404824      -9.5703779e-05
H            -1.237425243665      2.143795338383     -0.000181194041
C             1.500585519651      1.372005332691      6.241921557829
H             1.501622062336      2.436241459317      6.434579809451
C             2.707296745954      0.686443602235      6.121038527809
H             3.643637581134       1.21705113861      6.225745863701
C             2.706499979491     -0.685573625302      5.877716137847
H             3.643542169694     -1.218111779773      5.786494495089
C             1.499883175455     -1.372417723761      5.757490074319
H             1.499903451308     -2.437528879799      5.568474102963
C             0.292573577189     -0.686667101039      5.880933630414
H            -0.644295487639     -1.219153281506      5.786513940096
C             0.293161002261      0.686209515174       6.12090007178
H             -0.64353936549      1.219094060201      6.214775185584
