24
-0.988565818677877
C             0.697092438124      1.206228481101                   0
H             1.238751481843      2.142336379831      0.004928675883
C             1.394066202537                   0                   0
H             2.475325479251      0.000114333064      0.010977564436
C             0.696663336265       -1.2063436648     -0.001377484826
H             1.238021589736     -2.142768045099      0.001261014205
C             -0.69694068372     -1.206903024974     -0.000507818264
H            -1.237799125947      -2.14373787832      -0.00169760104
C            -1.394117326826      0.000170803848      0.001981006868
H            -2.475865900014      0.000265443726      0.001461018677
C             -0.69676396638      1.206847404824      -9.5703779e-05
H            -1.237425243665      2.143795338383     -0.000181194041
C             1.000585519651      1.206521240926      5.696585363232
H             1.001622062336      2.140683073058      6.241615093175
C             2.207296745954      0.603648372977      5.348516550634
H             3.143637581134      1.066444341413      5.628387727155
C             2.206499979491     -0.602404932642      4.650610767508
H             3.143542169694     -1.071627467354      4.382751687033
C             0.999883175455     -1.206707528115      4.302720705787
H             0.999903451308     -2.142937352146      3.760814322047
C            -0.207426422811     -0.604532910992      4.653260230802
H            -1.144295487639     -1.072612809432      4.382413744791
C            -0.206838997739      0.603475757844      5.348306382036
H             -1.14353936549      1.072116252659      5.618777382218
