28
-0.0105825000248175
C             0.697092438124      1.206228481101                   0
H             1.238751481843      2.142336379831      0.004928675883
C             1.394066202537                   0                   0
H             2.475325479251      0.000114333064      0.010977564436
C             0.696663336265       -1.2063436648     -0.001377484826
H             1.238021589736     -2.142768045099      0.001261014205
C             -0.69694068372     -1.206903024974     -0.000507818264
H            -1.237799125947      -2.14373787832      -0.00169760104
C            -1.394117326826      0.000170803848      0.001981006868
H            -2.475865900014      0.000265443726      0.001461018677
C             -0.69676396638      1.206847404824      -9.5703779e-05
H            -1.237425243665      2.143795338383     -0.000181194041
C             6.742345282888      0.603687655321      6.000381805217
C             7.634329362996      1.185023959141      5.091448908246
C             7.903700271235      2.553827493035      5.071617226703
C             7.253149172481      3.386182060785      6.002628166033
C             6.358085604919      2.821088661167      6.918657563559
C             6.108390305481      1.450190170551      6.915266330242
H             6.545395676947      -0.46315033805      6.000793653856
H             7.442642241378      4.455211211645      6.011307097569
H              5.85389254177      3.460396403881      7.639035999091
C             8.845147450108      2.780434859865      4.029772106355
C             9.125672428459      1.566154461468      3.445818560266
H             9.782632121435      1.301164402551      2.628575923359
N             8.389502380704      0.609956965766      4.094172063304
H             8.394681379699     -0.376912656446      3.877545954018
H             5.409406556663      1.030791827278      7.635326377772
H             9.269960117434      3.732642145673      3.741078893698
