25
-0.213938651394588
C             0.697092438124      1.206228481101                   0
H             1.238751481843      2.142336379831      0.004928675883
C             1.394066202537                   0                   0
H             2.475325479251      0.000114333064      0.010977564436
C             0.696663336265       -1.2063436648     -0.001377484826
H             1.238021589736     -2.142768045099      0.001261014205
C             -0.69694068372     -1.206903024974     -0.000507818264
H            -1.237799125947      -2.14373787832      -0.00169760104
C            -1.394117326826      0.000170803848      0.001981006868
H            -2.475865900014      0.000265443726      0.001461018677
C             -0.69676396638      1.206847404824      -9.5703779e-05
H            -1.237425243665      2.143795338383     -0.000181194041
C                     8.8118              0.4886              2.7496
C                     8.8273              1.8832              2.7491
C                      7.626              2.5932              2.7487
C                     6.4096              1.9083              2.7491
C                     6.3918              0.5125              2.7497
C                      7.596              -0.186              2.7496
H                     9.7432               -0.07              2.7499
H                      9.775              2.4147              2.7489
H                     5.4754               2.464              2.7492
H                      5.439             -0.0067              2.7501
O                      7.626             -1.5495              2.7491
H                      6.712             -1.8772              2.7448
H                     7.6382              3.6801              2.7481
