24
-0.366710361022252
C             0.697092438124      1.206228481101                   0
H             1.238751481843      2.142336379831      0.004928675883
C             1.394066202537                   0                   0
H             2.475325479251      0.000114333064      0.010977564436
C             0.696663336265       -1.2063436648     -0.001377484826
H             1.238021589736     -2.142768045099      0.001261014205
C             -0.69694068372     -1.206903024974     -0.000507818264
H            -1.237799125947      -2.14373787832      -0.00169760104
C            -1.394117326826      0.000170803848      0.001981006868
H            -2.475865900014      0.000265443726      0.001461018677
C             -0.69676396638      1.206847404824      -9.5703779e-05
H            -1.237425243665      2.143795338383     -0.000181194041
C             5.197092438124       0.41255443799      7.133484002672
H             5.738751481843      0.728090755324        8.0148233938
C             5.894066202537                 0.0                 6.0
H             6.975325479251     -0.010276432084      6.003861986098
C             5.196663336265     -0.411299420809      4.865936632498
H             5.738021589736     -0.734054799642      3.986887972224
C              3.80305931628     -0.412307952506      4.865708449352
H             3.262200874053     -0.731606313225      3.984964721092
C             3.105882673174     -0.001803119179      6.000838047368
H             2.024134099986     -0.001282121368      6.000749133328
C              3.80323603362      0.412856054505      7.134032868108
H             3.262574756335      0.733391455598      8.014446687942
