28
-0.358830856036825
C             0.697092438124      1.206228481101                   0
H             1.238751481843      2.142336379831      0.004928675883
C             1.394066202537                   0                   0
H             2.475325479251      0.000114333064      0.010977564436
C             0.696663336265       -1.2063436648     -0.001377484826
H             1.238021589736     -2.142768045099      0.001261014205
C             -0.69694068372     -1.206903024974     -0.000507818264
H            -1.237799125947      -2.14373787832      -0.00169760104
C            -1.394117326826      0.000170803848      0.001981006868
H            -2.475865900014      0.000265443726      0.001461018677
C             -0.69676396638      1.206847404824      -9.5703779e-05
H            -1.237425243665      2.143795338383     -0.000181194041
C             7.223326433032      4.396312344679      4.871503294461
C             5.996379111402      3.814976040859      4.530336355403
C             5.753181221055      2.446172506965      4.647847069506
C             6.782080468701      1.613817939215      5.128850644791
C             8.015242954975      2.178911338833       5.47462358988
C             8.229789810835      3.549809829449      5.346839045959
H             7.394095719362       5.46315033805      4.773385162874
H             6.622314122963      0.544788788355      5.231113354427
H              8.81207617384      1.539603596119      5.846393083815
C             4.416941487656      2.219565140135      4.216306317913
C             3.882022956964      3.433845538532      3.850850201545
H              2.90445785513      3.698835597449      3.471577163416
N             4.843741671343      4.390043034234      4.044255781931
H             4.730943472004      5.376912656446      3.859241567664
H             9.195157517909      3.969208172722      5.620937464961
H             3.904696319574      1.267357854327      4.178696995515
