24
-0.296328135841368
C             0.697092438124      1.206228481101                   0
H             1.238751481843      2.142336379831      0.004928675883
C             1.394066202537                   0                   0
H             2.475325479251      0.000114333064      0.010977564436
C             0.696663336265       -1.2063436648     -0.001377484826
H             1.238021589736     -2.142768045099      0.001261014205
C             -0.69694068372     -1.206903024974     -0.000507818264
H            -1.237799125947      -2.14373787832      -0.00169760104
C            -1.394117326826      0.000170803848      0.001981006868
H            -2.475865900014      0.000265443726      0.001461018677
C             -0.69676396638      1.206847404824      -9.5703779e-05
H            -1.237425243665      2.143795338383     -0.000181194041
C             5.742498182121      3.371903658271                 5.0
H             5.931323430794      4.436815646733      5.004928675883
C             6.809993723411      2.476798722397                 5.0
H             7.826005982685      2.846718613128      5.010977564436
C             6.567243229395      1.104680654175      4.998622515174
H             7.396229586147      0.409885001526      5.001261014205
C             5.257875127965      0.627514380892      4.999492181736
H             5.070050831728     -0.437806899621       4.99830239896
C             4.189899817115      1.523344295182      5.001981006868
H               3.1733562966      1.153453425533      5.001461018677
C             4.432489919993      2.895758289082      4.999904296221
H             3.603979440859      3.591284300761      4.999818805959
