24
-0.606308859446454
C             0.697092438124      1.206228481101                   0
H             1.238751481843      2.142336379831      0.004928675883
C             1.394066202537                   0                   0
H             2.475325479251      0.000114333064      0.010977564436
C             0.696663336265       -1.2063436648     -0.001377484826
H             1.238021589736     -2.142768045099      0.001261014205
C             -0.69694068372     -1.206903024974     -0.000507818264
H            -1.237799125947      -2.14373787832      -0.00169760104
C            -1.394117326826      0.000170803848      0.001981006868
H            -2.475865900014      0.000265443726      0.001461018677
C             -0.69676396638      1.206847404824      -9.5703779e-05
H            -1.237425243665      2.143795338383     -0.000181194041
C             0.977042660038      0.841378121899      7.002715399504
H             1.347919255067      1.490639023837      7.784142070425
C             1.872887204471       0.15560413194      6.185441783262
H             2.937699869467      0.267956172966      6.336415790344
C             1.395558833826     -0.684826338851      5.181712764406
H             2.091301026163     -1.219199176751      4.548976790864
C              0.02322392219     -0.841399173142      4.996469487629
H            -0.346737999939     -1.493895049538      4.217004209367
C            -0.872967211844     -0.157019255049      5.815953638275
H            -1.938298027572     -0.277304594462      5.671794194874
C             -0.39574540868      0.686262513202      6.817706926922
H            -1.090892127535      1.219088849482      7.452571628175
