28
-0.420385096386134
C             0.697092438124      1.206228481101                   0
H             1.238751481843      2.142336379831      0.004928675883
C             1.394066202537                   0                   0
H             2.475325479251      0.000114333064      0.010977564436
C             0.696663336265       -1.2063436648     -0.001377484826
H             1.238021589736     -2.142768045099      0.001261014205
C             -0.69694068372     -1.206903024974     -0.000507818264
H            -1.237799125947      -2.14373787832      -0.00169760104
C            -1.394117326826      0.000170803848      0.001981006868
H            -2.475865900014      0.000265443726      0.001461018677
C             -0.69676396638      1.206847404824      -9.5703779e-05
H            -1.237425243665      2.143795338383     -0.000181194041
C             6.222944627815      2.810010291464      2.855337043677
C             5.904930203156      1.451402030254      2.742213541344
C             5.681563994352      0.635485477361      3.851702077418
C             5.779452302668      1.199263286975      5.138319615065
C             6.096585391416      2.556405928683       5.26935263181
C             6.314523480593      3.347432985263      4.143075090686
H             6.393302065506      3.429019855634      1.980843976872
H             5.611007025394      0.589205004444      6.020510837465
H             6.173040174749      2.995357884525      6.260990656379
C             5.387169381301     -0.666860632927      3.361455848545
C             5.436204396698     -0.619156472119      1.986867628856
H             5.275881931771     -1.384065312031      1.239263140531
N             5.749569608039      0.663978384441      1.623564120613
H             5.853397517986      0.992701041234      0.673813350924
H             6.559831140137      4.399846034202      4.266406555016
H             5.163617425876       -1.5434334662      3.954880552861
