24
-0.365932061622068
C             0.697092438124      1.206228481101                   0
H             1.238751481843      2.142336379831      0.004928675883
C             1.394066202537                   0                   0
H             2.475325479251      0.000114333064      0.010977564436
C             0.696663336265       -1.2063436648     -0.001377484826
H             1.238021589736     -2.142768045099      0.001261014205
C             -0.69694068372     -1.206903024974     -0.000507818264
H            -1.237799125947      -2.14373787832      -0.00169760104
C            -1.394117326826      0.000170803848      0.001981006868
H            -2.475865900014      0.000265443726      0.001461018677
C             -0.69676396638      1.206847404824      -9.5703779e-05
H            -1.237425243665      2.143795338383     -0.000181194041
C             3.977042660038      3.230012527505      3.447687947786
H             4.347919255067      4.183002297728       3.79979284503
C             4.872887204471      2.227478022825      3.082795229258
H             5.937699869467      2.400264748062      3.157366534189
C             4.395558833826      0.997779375577      2.633755635809
H             5.091301026163      0.218630936093      2.352976627783
C              3.02322392219       0.76956168515      2.551616669385
H             2.653262000061     -0.185248958804      2.202827875241
C             2.127032788156      1.771994155382      2.919120802796
H             1.061701972428      1.595744274046      2.854417732322
C              2.60425459132      3.003174233559      3.365023714964
H             1.909107872465      3.782047727209      3.648419506075
