25
-0.0735812660823449
C             0.697092438124      1.206228481101                   0
H             1.238751481843      2.142336379831      0.004928675883
C             1.394066202537                   0                   0
H             2.475325479251      0.000114333064      0.010977564436
C             0.696663336265       -1.2063436648     -0.001377484826
H             1.238021589736     -2.142768045099      0.001261014205
C             -0.69694068372     -1.206903024974     -0.000507818264
H            -1.237799125947      -2.14373787832      -0.00169760104
C            -1.394117326826      0.000170803848      0.001981006868
H            -2.475865900014      0.000265443726      0.001461018677
C             -0.69676396638      1.206847404824      -9.5703779e-05
H            -1.237425243665      2.143795338383     -0.000181194041
C             3.556135173423              1.5114      6.877247238892
C             3.542961779665              0.1168       6.86906422619
C             4.583518097231             -0.5932      7.469367816029
C             5.636751398394              0.0917       8.07791422619
C             5.651866650582              1.4875      8.087333841433
C             4.609048859344               2.186      7.485147238892
H             2.749369112339                2.07      6.411807046514
H             2.722329504498             -0.4147       6.39504102111
H              6.44574233061              -0.464      8.545100828731
H             6.476815655308              2.0067      8.564080251594
O             4.583318097231              3.5495       7.46971422619
H              5.37701531629              3.8772      7.922990316954
H             4.573252587305             -1.6801      7.462748200787
