25
-0.0599082842777834
C             0.697092438124      1.206228481101                   0
H             1.238751481843      2.142336379831      0.004928675883
C             1.394066202537                   0                   0
H             2.475325479251      0.000114333064      0.010977564436
C             0.696663336265       -1.2063436648     -0.001377484826
H             1.238021589736     -2.142768045099      0.001261014205
C             -0.69694068372     -1.206903024974     -0.000507818264
H            -1.237799125947      -2.14373787832      -0.00169760104
C            -1.394117326826      0.000170803848      0.001981006868
H            -2.475865900014      0.000265443726      0.001461018677
C             -0.69676396638      1.206847404824      -9.5703779e-05
H            -1.237425243665      2.143795338383     -0.000181194041
C             7.776182413288     -2.324764826577      3.581641841252
C             8.829094110168     -1.640888220335      4.188963342609
C             8.841615951385     -0.245531902769      4.195730950791
C             7.801024300803      0.465451398394      3.595406961427
C             6.746166674709     -0.217033349418      2.987077447368
C             6.743775570328     -1.609151140656      2.985581472556
H             7.760390443831     -3.410680887661      3.572870753597
H             9.638185247751     -2.195870495502      4.655861388584
H             7.813228834695       1.55234233061      3.602568722409
H             5.943992172346      0.348515655308      2.524403662707
O             5.734390951385     -2.316881902769      2.402235640824
H             5.094992341855      -1.68918468371      2.028113469178
H             9.662373706348      0.287352587305      4.668902841236
