24
-1.54897634809448
C             0.697092438124      1.206228481101                   0
H             1.238751481843      2.142336379831      0.004928675883
C             1.394066202537                   0                   0
H             2.475325479251      0.000114333064      0.010977564436
C             0.696663336265       -1.2063436648     -0.001377484826
H             1.238021589736     -2.142768045099      0.001261014205
C             -0.69694068372     -1.206903024974     -0.000507818264
H            -1.237799125947      -2.14373787832      -0.00169760104
C            -1.394117326826      0.000170803848      0.001981006868
H            -2.475865900014      0.000265443726      0.001461018677
C             -0.69676396638      1.206847404824      -9.5703779e-05
H            -1.237425243665      2.143795338383     -0.000181194041
C             2.697092438124       0.91255443799      6.633484002672
H             3.238751481843      1.228090755324        7.5148233938
C             3.394066202537                 0.5                 5.5
H             4.475325479251      0.489723567916      5.503861986098
C             2.696663336265      0.088700579191      4.365936632498
H             3.238021589736     -0.234054799642      3.486887972224
C              1.30305931628      0.087692047494      4.365708449352
H             0.762200874053     -0.231606313225      3.484964721092
C             0.605882673174      0.498196880821      5.500838047368
H            -0.475865900014      0.498717878632      5.500749133328
C              1.30323603362      0.912856054505      6.634032868108
H             0.762574756335      1.233391455598      7.514446687942
