24
-0.384830436420331
C             0.697092438124      1.206228481101                   0
H             1.238751481843      2.142336379831      0.004928675883
C             1.394066202537                   0                   0
H             2.475325479251      0.000114333064      0.010977564436
C             0.696663336265       -1.2063436648     -0.001377484826
H             1.238021589736     -2.142768045099      0.001261014205
C             -0.69694068372     -1.206903024974     -0.000507818264
H            -1.237799125947      -2.14373787832      -0.00169760104
C            -1.394117326826      0.000170803848      0.001981006868
H            -2.475865900014      0.000265443726      0.001461018677
C             -0.69676396638      1.206847404824      -9.5703779e-05
H            -1.237425243665      2.143795338383     -0.000181194041
C             6.477042660038      2.002715399504      5.341378121899
H             6.847919255067      2.777805886846      5.998190193382
C             7.372887204471      1.185441783262       4.65560413194
H             8.437699869467      1.322303305536      4.784774777437
C             6.895558833826      0.183483624763      3.813063231956
H             7.591301026163     -0.452644337749      3.282732809098
C              5.52322392219     -0.002877673795      3.657822804139
H             5.153262000061     -0.780813396803      3.003504074775
C             4.627032788156      0.813406904936      4.346015823557
H             3.561701972428      0.669915945468      4.224933816015
C              5.10425459132      1.817829961329      5.186115886506
H             4.409107872465      2.452804566744      5.718811244105
