25
-0.323160106920939
C             0.697092438124      1.206228481101                   0
H             1.238751481843      2.142336379831      0.004928675883
C             1.394066202537                   0                   0
H             2.475325479251      0.000114333064      0.010977564436
C             0.696663336265       -1.2063436648     -0.001377484826
H             1.238021589736     -2.142768045099      0.001261014205
C             -0.69694068372     -1.206903024974     -0.000507818264
H            -1.237799125947      -2.14373787832      -0.00169760104
C            -1.394117326826      0.000170803848      0.001981006868
H            -2.475865900014      0.000265443726      0.001461018677
C             -0.69676396638      1.206847404824      -9.5703779e-05
H            -1.237425243665      2.143795338383     -0.000181194041
C                    -0.2504      -2.21481079528      7.186635173423
C                    -0.2509     -1.014801767162      6.475911779665
C                    -0.2513      0.200726269525      7.161268097231
C                    -0.2509      0.215785470473      8.557151398394
C                    -0.2503     -0.984112788129      9.270466650582
C                    -0.2504     -2.191131532673      8.576848859344
H                    -0.2501     -3.164272585834      6.659319112339
H                    -0.2511     -1.028359265051      5.389429504498
H                    -0.2508      1.164135787356       9.08834233061
H                    -0.2499     -0.957353177774     10.355215655308
O                    -0.2509     -3.386957170733      9.232618097231
H                    -0.2552     -3.213753695553      10.18801531629
H                    -0.2519      1.135909280898      6.607252587305
