24
-0.416315951511309
C             0.697092438124      1.206228481101                   0
H             1.238751481843      2.142336379831      0.004928675883
C             1.394066202537                   0                   0
H             2.475325479251      0.000114333064      0.010977564436
C             0.696663336265       -1.2063436648     -0.001377484826
H             1.238021589736     -2.142768045099      0.001261014205
C             -0.69694068372     -1.206903024974     -0.000507818264
H            -1.237799125947      -2.14373787832      -0.00169760104
C            -1.394117326826      0.000170803848      0.001981006868
H            -2.475865900014      0.000265443726      0.001461018677
C             -0.69676396638      1.206847404824      -9.5703779e-05
H            -1.237425243665      2.143795338383     -0.000181194041
C             5.000585519651      1.372005332691      5.241921557829
H             5.001622062336      2.436241459317      5.434579809451
C             6.207296745954      0.686443602235      5.121038527809
H             7.143637581134       1.21705113861      5.225745863701
C             6.206499979491     -0.685573625302      4.877716137847
H             7.143542169694     -1.218111779773      4.786494495089
C             4.999883175455     -1.372417723761      4.757490074319
H             4.999903451308     -2.437528879799      4.568474102963
C             3.792573577189     -0.686667101039      4.880933630414
H             2.855704512361     -1.219153281506      4.786513940096
C             3.793161002261      0.686209515174       5.12090007178
H              2.85646063451      1.219094060201      5.214775185584
