28
-0.182605244488878
C             0.697092438124      1.206228481101                   0
H             1.238751481843      2.142336379831      0.004928675883
C             1.394066202537                   0                   0
H             2.475325479251      0.000114333064      0.010977564436
C             0.696663336265       -1.2063436648     -0.001377484826
H             1.238021589736     -2.142768045099      0.001261014205
C             -0.69694068372     -1.206903024974     -0.000507818264
H            -1.237799125947      -2.14373787832      -0.00169760104
C            -1.394117326826      0.000170803848      0.001981006868
H            -2.475865900014      0.000265443726      0.001461018677
C             -0.69676396638      1.206847404824      -9.5703779e-05
H            -1.237425243665      2.143795338383     -0.000181194041
C             1.505080461014     -0.129158011573      6.679285723983
C             1.489820879629      1.103993007593      7.341744943562
C             0.998859923853      1.255853201729      8.638846681107
C             0.497908878243       0.12429852769      9.310742727576
C             0.505810266816     -1.116537984961      8.662790943622
C             1.002519590444     -1.238448740478       7.36658898015
H             1.890965588936     -0.227989485927      5.670198201155
H              0.10927219208      0.211528886951     10.320771768244
H             0.119944610852     -1.992500542045      9.178220297982
C             1.140509454078      2.628841132195      8.982291723992
C             1.705184084268      3.274822226914      7.906176543964
H              1.97652244115      4.311054958019      7.756849653655
N             1.911900598435      2.345246598773       6.92140261598
H             2.315417801905      2.535439812035      6.014834497948
H             0.999776097173     -2.211530908298      6.880725530799
H             0.858007483638      3.091263121919      9.918703400882
