25
-0.0261354361077381
C             0.697092438124      1.206228481101                   0
H             1.238751481843      2.142336379831      0.004928675883
C             1.394066202537                   0                   0
H             2.475325479251      0.000114333064      0.010977564436
C             0.696663336265       -1.2063436648     -0.001377484826
H             1.238021589736     -2.142768045099      0.001261014205
C             -0.69694068372     -1.206903024974     -0.000507818264
H            -1.237799125947      -2.14373787832      -0.00169760104
C            -1.394117326826      0.000170803848      0.001981006868
H            -2.475865900014      0.000265443726      0.001461018677
C             -0.69676396638      1.206847404824      -9.5703779e-05
H            -1.237425243665      2.143795338383     -0.000181194041
C             8.474217586712      2.324764826577      2.984652636532
C             7.421805889832      1.640888220335      2.376465109771
C             7.409684048615      0.245531902769      2.369004681267
C             8.449875699197     -0.465451398394      2.970021490954
C             9.504133325291      0.217033349418      3.579390235497
C             9.506624429672      1.609151140656      3.580713005229
H             8.489709556169      3.410680887661       2.99394333943
H             6.612914752249      2.195870495502      1.909220653635
H             8.437571165305      -1.55234233061      2.963032935053
H            10.305907827654     -0.348515655308      4.042756840481
O            10.516509048615      2.316881902769      4.163192811557
H            11.160207658145       1.68918468371      4.529867164731
H             6.589526293652     -0.287352587305      1.894793560338
