25
-0.185454951164671
C             0.697092438124      1.206228481101                   0
H             1.238751481843      2.142336379831      0.004928675883
C             1.394066202537                   0                   0
H             2.475325479251      0.000114333064      0.010977564436
C             0.696663336265       -1.2063436648     -0.001377484826
H             1.238021589736     -2.142768045099      0.001261014205
C             -0.69694068372     -1.206903024974     -0.000507818264
H            -1.237799125947      -2.14373787832      -0.00169760104
C            -1.394117326826      0.000170803848      0.001981006868
H            -2.475865900014      0.000265443726      0.001461018677
C             -0.69676396638      1.206847404824      -9.5703779e-05
H            -1.237425243665      2.143795338383     -0.000181194041
C              7.88810539764      -0.40301079528      3.620764825604
C             7.295600883581      0.812498232838      3.962270116023
C             6.086986865238      0.826726269525      4.659601864644
C             5.471457264764     -0.374614529527      5.015439925388
C             6.062806394065     -1.592312788129      4.674717166724
C             7.268365766336     -1.595131532673      3.978571668565
H             8.828686292917     -0.421072585834      3.078066602683
H             7.776129632525      1.746640734949      3.684605773359
H             4.530232106322     -0.360464212644      5.558971994036
H             5.573226588887     -2.518353177774      4.957838079248
O             7.881028585366     -2.760957170733      3.624273274806
H             7.335276847777     -3.501753695553      3.934397975099
H             5.625195359551      1.774109280898      4.925524494439
