24
-0.4042437451087
C             0.697092438124      1.206228481101                   0
H             1.238751481843      2.142336379831      0.004928675883
C             1.394066202537                   0                   0
H             2.475325479251      0.000114333064      0.010977564436
C             0.696663336265       -1.2063436648     -0.001377484826
H             1.238021589736     -2.142768045099      0.001261014205
C             -0.69694068372     -1.206903024974     -0.000507818264
H            -1.237799125947      -2.14373787832      -0.00169760104
C            -1.394117326826      0.000170803848      0.001981006868
H            -2.475865900014      0.000265443726      0.001461018677
C             -0.69676396638      1.206847404824      -9.5703779e-05
H            -1.237425243665      2.143795338383     -0.000181194041
C             5.242498182121      1.371903658271                 5.0
H             5.431323430794      2.436815646733      5.004928675883
C             6.309993723411      0.476798722397                 5.0
H             7.326005982685      0.846718613128      5.010977564436
C             6.067243229395     -0.895319345825      4.998622515174
H             6.896229586147     -1.590114998474      5.001261014205
C             4.757875127965     -1.372485619108      4.999492181736
H             4.570050831728     -2.437806899621       4.99830239896
C             3.689899817115     -0.476655704818      5.001981006868
H               2.6733562966     -0.846546574467      5.001461018677
C             3.932489919993      0.895758289082      4.999904296221
H             3.103979440859      1.591284300761      4.999818805959
