28
-0.53944583021175
C             0.697092438124      1.206228481101                   0
H             1.238751481843      2.142336379831      0.004928675883
C             1.394066202537                   0                   0
H             2.475325479251      0.000114333064      0.010977564436
C             0.696663336265       -1.2063436648     -0.001377484826
H             1.238021589736     -2.142768045099      0.001261014205
C             -0.69694068372     -1.206903024974     -0.000507818264
H            -1.237799125947      -2.14373787832      -0.00169760104
C            -1.394117326826      0.000170803848      0.001981006868
H            -2.475865900014      0.000265443726      0.001461018677
C             -0.69676396638      1.206847404824      -9.5703779e-05
H            -1.237425243665      2.143795338383     -0.000181194041
C             0.556165227377     -0.586302053215      5.785366368021
C             0.840770415269     -1.363574010605      6.914345862866
C             1.278003969203     -0.810687029604      8.118389010661
C             1.440309162742       0.58544534776      8.203733235571
C             1.160052726025       1.37749458985      7.084048670534
C             0.724698499384      0.797623155814      5.894116852347
H             0.217036825562     -1.034130482416      4.857263870405
H             1.779142064306      1.044416216089      9.127499590904
H             1.284102244375      2.455754288406      7.145999172304
C              1.46442160636     -1.886425773062      9.030063055745
C             1.142583612883     -3.053002010651      8.374553268445
H             1.148054406849      -4.08290090948      8.704673891405
N             0.767526278375     -2.726064649793      7.098204486643
H             0.477665107797     -3.384211615212      6.388494392167
H             0.512265812547       1.43063786148       5.03555732647
H             1.798743280916     -1.810791320527     10.056229092999
