25
-0.341382717282496
C             0.697092438124      1.206228481101                   0
H             1.238751481843      2.142336379831      0.004928675883
C             1.394066202537                   0                   0
H             2.475325479251      0.000114333064      0.010977564436
C             0.696663336265       -1.2063436648     -0.001377484826
H             1.238021589736     -2.142768045099      0.001261014205
C             -0.69694068372     -1.206903024974     -0.000507818264
H            -1.237799125947      -2.14373787832      -0.00169760104
C            -1.394117326826      0.000170803848      0.001981006868
H            -2.475865900014      0.000265443726      0.001461018677
C             -0.69676396638      1.206847404824      -9.5703779e-05
H            -1.237425243665      2.143795338383     -0.000181194041
C             1.984652636532      2.324764826577      6.525782413288
C             1.376465109771      1.640888220335      7.578194110168
C             1.369004681267      0.245531902769      7.590315951385
C             1.970021490954     -0.465451398394      6.550124300803
C             2.579390235497      0.217033349418      5.495866674709
C             2.580713005229      1.609151140656      5.493375570328
H              1.99394333943      3.410680887661      6.510290443831
H             0.909220653635      2.195870495502      8.387085247751
H             1.963032935053      -1.55234233061      6.562428834695
H             3.042756840481     -0.348515655308      4.694092172346
O             3.163192811557      2.316881902769      4.483490951385
H             3.529867164731       1.68918468371      3.839792341855
H             0.894793560338     -0.287352587305      8.410473706348
