25
-2.55032126207848
C             0.697092438124      1.206228481101                   0
H             1.238751481843      2.142336379831      0.004928675883
C             1.394066202537                   0                   0
H             2.475325479251      0.000114333064      0.010977564436
C             0.696663336265       -1.2063436648     -0.001377484826
H             1.238021589736     -2.142768045099      0.001261014205
C             -0.69694068372     -1.206903024974     -0.000507818264
H            -1.237799125947      -2.14373787832      -0.00169760104
C            -1.394117326826      0.000170803848      0.001981006868
H            -2.475865900014      0.000265443726      0.001461018677
C             -0.69676396638      1.206847404824      -9.5703779e-05
H            -1.237425243665      2.143795338383     -0.000181194041
C             4.776182413288     -1.324764826577      4.581641841252
C             5.829094110168     -0.640888220335      5.188963342609
C             5.841615951385      0.754468097231      5.195730950791
C             4.801024300803      1.465451398394      4.595406961427
C             3.746166674709      0.782966650582      3.987077447368
C             3.743775570328     -0.609151140656      3.985581472556
H             4.760390443831     -2.410680887661      4.572870753597
H             6.638185247751     -1.195870495502      5.655861388584
H             4.813228834695       2.55234233061      4.602568722409
H             2.943992172346      1.348515655308      3.524403662707
O             2.734390951385     -1.316881902769      3.402235640824
H             2.094992341855      -0.68918468371      3.028113469178
H             6.662373706348      1.287352587305      5.668902841236
