24
-1.4737720299909
C             0.697092438124      1.206228481101                   0
H             1.238751481843      2.142336379831      0.004928675883
C             1.394066202537                   0                   0
H             2.475325479251      0.000114333064      0.010977564436
C             0.696663336265       -1.2063436648     -0.001377484826
H             1.238021589736     -2.142768045099      0.001261014205
C             -0.69694068372     -1.206903024974     -0.000507818264
H            -1.237799125947      -2.14373787832      -0.00169760104
C            -1.394117326826      0.000170803848      0.001981006868
H            -2.475865900014      0.000265443726      0.001461018677
C             -0.69676396638      1.206847404824      -9.5703779e-05
H            -1.237425243665      2.143795338383     -0.000181194041
C             4.977042660038      2.808951991638                 3.5
H             5.347919255067      3.824896413822      3.504928675883
C             5.872887204471      1.742077055618                 3.5
H             6.937699869467      1.929948354692      3.510977564436
C             5.395558833826      0.432957724898      3.498622515174
H             6.091301026163      -0.39523439075      3.501261014205
C              4.02322392219      0.190410064202      3.499492181736
H             3.653262000061     -0.826111245534       3.49830239896
C             3.127032788156      1.258082275697      3.501981006868
H             2.061701972428      1.070331809354      3.501461018677
C              3.60425459132      2.567520887947      3.499904296221
H             2.909107872465       3.39634963155      3.499818805959
