24
-0.304004014169544
C             0.697092438124      1.206228481101                   0
H             1.238751481843      2.142336379831      0.004928675883
C             1.394066202537                   0                   0
H             2.475325479251      0.000114333064      0.010977564436
C             0.696663336265       -1.2063436648     -0.001377484826
H             1.238021589736     -2.142768045099      0.001261014205
C             -0.69694068372     -1.206903024974     -0.000507818264
H            -1.237799125947      -2.14373787832      -0.00169760104
C            -1.394117326826      0.000170803848      0.001981006868
H            -2.475865900014      0.000265443726      0.001461018677
C             -0.69676396638      1.206847404824      -9.5703779e-05
H            -1.237425243665      2.143795338383     -0.000181194041
C             5.000585519651      1.067230693324      6.395512881149
H             5.001622062336      1.892557088795      7.094477884615
C             6.207296745954      0.533958333897      5.948044241037
H             7.143637581134      0.941124271891       6.30402722207
C             6.206499979491       -0.5325822446      5.051312256252
H             7.143542169694     -0.948162993477      4.706042919013
C             4.999883175455     -1.067293650541       4.60377138181
H             4.999903451308     -1.895198983845      3.907523170876
C             3.792573577189      -0.53513796865      5.053551948683
H             2.855704512361      -0.94907468294      4.705539008017
C             3.793161002261       0.53382483657      5.947807291068
H              2.85646063451      0.948378832945      6.295547796919
