28
-0.161089529686973
C             0.697092438124      1.206228481101                   0
H             1.238751481843      2.142336379831      0.004928675883
C             1.394066202537                   0                   0
H             2.475325479251      0.000114333064      0.010977564436
C             0.696663336265       -1.2063436648     -0.001377484826
H             1.238021589736     -2.142768045099      0.001261014205
C             -0.69694068372     -1.206903024974     -0.000507818264
H            -1.237799125947      -2.14373787832      -0.00169760104
C            -1.394117326826      0.000170803848      0.001981006868
H            -2.475865900014      0.000265443726      0.001461018677
C             -0.69676396638      1.206847404824      -9.5703779e-05
H            -1.237425243665      2.143795338383     -0.000181194041
C             3.222944627815      0.413697946785      5.726179032104
C             2.904930203156     -0.363574010605      6.846206548937
C             2.681563994352      0.189312970396      8.107555279147
C             2.779452302668       1.58544534776      8.262618142755
C             3.096585391416       2.37749458985      7.152814646849
C             3.314523480593      1.797623155814      5.904626350208
H             3.393302065506     -0.034130482416      4.752854490945
H             2.611007025394      2.044416216089      9.232039724416
H             3.173040174749      3.455754288406      7.268490114334
C             2.387169381301     -0.886425773062       8.99029698074
C             2.436204396698     -2.053002010651       8.26168985577
H             2.275881931771      -3.08290090948       8.55031809855
N             2.749569608039     -1.726064649793      6.968810719386
H             2.853397517986     -2.384211615212      6.209253162959
H             3.559831140137       2.43063786148      5.054875646718
H             2.163617425876     -0.810791320527      10.04614367478
