24
-0.347696650062476
C             0.697092438124      1.206228481101                   0
H             1.238751481843      2.142336379831      0.004928675883
C             1.394066202537                   0                   0
H             2.475325479251      0.000114333064      0.010977564436
C             0.696663336265       -1.2063436648     -0.001377484826
H             1.238021589736     -2.142768045099      0.001261014205
C             -0.69694068372     -1.206903024974     -0.000507818264
H            -1.237799125947      -2.14373787832      -0.00169760104
C            -1.394117326826      0.000170803848      0.001981006868
H            -2.475865900014      0.000265443726      0.001461018677
C             -0.69676396638      1.206847404824      -9.5703779e-05
H            -1.237425243665      2.143795338383     -0.000181194041
C             3.500585519651      1.696585363232      7.706521240926
H             3.501622062336      2.233078376132      8.645611748941
C             4.707296745954      1.348516550634      7.103648372977
H             5.643637581134      1.609374027808      7.577421905849
C             4.706499979491      0.652996641213      5.896217582532
H             5.643542169694      0.380567546361      5.429633546851
C             3.499883175455      0.303600272821      5.292784653621
H             3.499903451308     -0.236245346701      4.355365046814
C             2.292573577189      0.649829026256      5.897448095876
H             1.355704512361      0.379883186212      5.428848209245
C             2.293161002261      1.348472145843      7.103380054065
H              1.35646063451      1.619091219503      7.571935058618
