25
-0.0033320728293848
C             0.697092438124      1.206228481101                   0
H             1.238751481843      2.142336379831      0.004928675883
C             1.394066202537                   0                   0
H             2.475325479251      0.000114333064      0.010977564436
C             0.696663336265       -1.2063436648     -0.001377484826
H             1.238021589736     -2.142768045099      0.001261014205
C             -0.69694068372     -1.206903024974     -0.000507818264
H            -1.237799125947      -2.14373787832      -0.00169760104
C            -1.394117326826      0.000170803848      0.001981006868
H            -2.475865900014      0.000265443726      0.001461018677
C             -0.69676396638      1.206847404824      -9.5703779e-05
H            -1.237425243665      2.143795338383     -0.000181194041
C                     8.2504     -1.324764826577       4.59698920472
C                     8.2509     -0.640888220335      5.812498232838
C                     8.2513      0.754468097231      5.826726269525
C                     8.2509      1.465451398394      4.625385470473
C                     8.2503      0.782966650582      3.407687211871
C                     8.2504     -0.609151140656      3.404868467327
H                     8.2501     -2.410680887661      4.578927414166
H                     8.2511     -1.195870495502      6.746640734949
H                     8.2508       2.55234233061      4.639535787356
H                     8.2499      1.348515655308      2.481646822226
O                     8.2509     -1.316881902769      2.239042829267
H                     8.2552      -0.68918468371      1.498246304447
H                     8.2519      1.287352587305      6.774109280898
