24
-0.25622177661784
C             0.697092438124      1.206228481101                   0
H             1.238751481843      2.142336379831      0.004928675883
C             1.394066202537                   0                   0
H             2.475325479251      0.000114333064      0.010977564436
C             0.696663336265       -1.2063436648     -0.001377484826
H             1.238021589736     -2.142768045099      0.001261014205
C             -0.69694068372     -1.206903024974     -0.000507818264
H            -1.237799125947      -2.14373787832      -0.00169760104
C            -1.394117326826      0.000170803848      0.001981006868
H            -2.475865900014      0.000265443726      0.001461018677
C             -0.69676396638      1.206847404824      -9.5703779e-05
H            -1.237425243665      2.143795338383     -0.000181194041
C             4.197092438124      1.924024625079      7.275348722103
H             4.738751481843      2.637956787271      7.880842865508
C             4.894066202537                 1.0                 6.5
H             5.975325479251      0.993031341804      6.508482794112
C             4.196663336265      0.076772569267      5.723522024646
H             4.738021589736     -0.642266118148      5.123621243103
C              2.80305931628      0.075785063623      5.723828678094
H             2.262200874053     -0.641107292276      5.120731415557
C             2.105882673174      0.998857476669        6.5016273299
H             1.024134099986      0.999264216988      6.501289829177
C              2.80323603362      1.924560265361      7.275673245255
H             2.262574756335      2.642358975437      7.877866278528
