25
-0.578604839143323
C             0.697092438124      1.206228481101                   0
H             1.238751481843      2.142336379831      0.004928675883
C             1.394066202537                   0                   0
H             2.475325479251      0.000114333064      0.010977564436
C             0.696663336265       -1.2063436648     -0.001377484826
H             1.238021589736     -2.142768045099      0.001261014205
C             -0.69694068372     -1.206903024974     -0.000507818264
H            -1.237799125947      -2.14373787832      -0.00169760104
C            -1.394117326826      0.000170803848      0.001981006868
H            -2.475865900014      0.000265443726      0.001461018677
C             -0.69676396638      1.206847404824      -9.5703779e-05
H            -1.237425243665      2.143795338383     -0.000181194041
C              7.21481079528      0.813364826577              3.7496
C             6.014801767162      1.524088220335              3.7491
C             4.799273730475      0.838731902769              3.7487
C             4.784214529527     -0.557151398394              3.7491
C             5.984112788129     -1.270466650582              3.7497
C             7.191131532673     -0.576848859344              3.7496
H             8.164272585834      1.340680887661              3.7499
H             6.028359265051      2.610570495502              3.7489
H             3.835864212644      -1.08834233061              3.7492
H             5.957353177774     -2.355215655308              3.7501
O             8.386957170733     -1.232618097231              3.7491
H             8.213753695553      -2.18801531629              3.7448
H             3.864090719102      1.392747412695              3.7481
