24
-0.435434456435939
C             0.697092438124      1.206228481101                   0
H             1.238751481843      2.142336379831      0.004928675883
C             1.394066202537                   0                   0
H             2.475325479251      0.000114333064      0.010977564436
C             0.696663336265       -1.2063436648     -0.001377484826
H             1.238021589736     -2.142768045099      0.001261014205
C             -0.69694068372     -1.206903024974     -0.000507818264
H            -1.237799125947      -2.14373787832      -0.00169760104
C            -1.394117326826      0.000170803848      0.001981006868
H            -2.475865900014      0.000265443726      0.001461018677
C             -0.69676396638      1.206847404824      -9.5703779e-05
H            -1.237425243665      2.143795338383     -0.000181194041
C             6.000585519651      1.395512881149      5.567230693324
H             6.001622062336       2.08692671507      6.398893272375
C             7.207296745954      0.948044241037      5.033958333897
H             8.143637581134      1.287208617599      5.455236756699
C             7.206499979491      0.053422685445      3.965646895043
H             8.143542169694     -0.295889066836      3.553458135137
C             5.999883175455     -0.395450595471      3.432053510883
H             5.999903451308     -1.089875953438      2.602618622325
C             4.792573577189      0.050516870077      3.967408764689
H             3.855704512361     -0.296699402461      3.552803566467
C             4.793161002261      0.947953917764      5.033701802163
H              3.85646063451      1.295825402295      5.448145894376
