25
-0.173136761231545
C             0.697092438124      1.206228481101                   0
H             1.238751481843      2.142336379831      0.004928675883
C             1.394066202537                   0                   0
H             2.475325479251      0.000114333064      0.010977564436
C             0.696663336265       -1.2063436648     -0.001377484826
H             1.238021589736     -2.142768045099      0.001261014205
C             -0.69694068372     -1.206903024974     -0.000507818264
H            -1.237799125947      -2.14373787832      -0.00169760104
C            -1.394117326826      0.000170803848      0.001981006868
H            -2.475865900014      0.000265443726      0.001461018677
C             -0.69676396638      1.206847404824      -9.5703779e-05
H            -1.237425243665      2.143795338383     -0.000181194041
C              6.81628920472              2.1882      3.027447238892
C             8.024298232838              2.1727       3.72431422619
C             8.639376269525               3.374      4.078967816029
C             8.046035470473              4.5904       3.73686422619
C             6.836937211871              4.6082      3.039483841433
C             6.232068467327               3.404      2.690147238892
H             6.332377414166              1.2568      2.748407046514
H             8.484690734949               1.225       3.98989102111
H             8.527235787356              5.5246      4.014800828731
H             6.387096822226               5.561      2.780230251594
O             5.051492829267               3.374       2.00796422619
H             4.769846304447               4.288      1.840390316954
H             9.580959280898              3.3618      4.621898200787
