28
-1.47376268012721
C             0.697092438124      1.206228481101                   0
H             1.238751481843      2.142336379831      0.004928675883
C             1.394066202537                   0                   0
H             2.475325479251      0.000114333064      0.010977564436
C             0.696663336265       -1.2063436648     -0.001377484826
H             1.238021589736     -2.142768045099      0.001261014205
C             -0.69694068372     -1.206903024974     -0.000507818264
H            -1.237799125947      -2.14373787832      -0.00169760104
C            -1.394117326826      0.000170803848      0.001981006868
H            -2.475865900014      0.000265443726      0.001461018677
C             -0.69676396638      1.206847404824      -9.5703779e-05
H            -1.237425243665      2.143795338383     -0.000181194041
C             0.396280158468     -1.273820967896      4.513773262067
C             1.228424631547     -0.153793451063      4.400545853897
C             0.861293564979      1.107555279147      4.870430155569
C            -0.396736695022      1.262618142755      5.483722582516
C            -1.241238004094      0.152814646849      5.605101892324
C            -0.848023655878     -1.095373649792      5.126426253627
H             0.698932235848     -2.247145509055      4.142325178703
H            -0.709994487954      2.232039724416      5.859085905947
H            -2.213265686586      0.268490114334      6.078019956995
C             1.940107951175       1.99029698074      4.587513997479
C              2.92587510068       1.26168985577      3.961760309676
H             3.897954942859       1.55031809855      3.585654187686
N              2.48605643506     -0.031189280614      3.853846756421
H             3.004114471563     -0.790746837041      3.434855666076
H            -1.518884301726     -1.945124353282      5.230490941552
H             1.986382571591       3.04614367478       4.81893289621
