25
-0.201448900560235
C             0.697092438124      1.206228481101                   0
H             1.238751481843      2.142336379831      0.004928675883
C             1.394066202537                   0                   0
H             2.475325479251      0.000114333064      0.010977564436
C             0.696663336265       -1.2063436648     -0.001377484826
H             1.238021589736     -2.142768045099      0.001261014205
C             -0.69694068372     -1.206903024974     -0.000507818264
H            -1.237799125947      -2.14373787832      -0.00169760104
C            -1.394117326826      0.000170803848      0.001981006868
H            -2.475865900014      0.000265443726      0.001461018677
C             -0.69676396638      1.206847404824      -9.5703779e-05
H            -1.237425243665      2.143795338383     -0.000181194041
C             5.376464825604       3.21481079528       4.57919460236
C             5.020670116023      2.014801767162      5.194449116419
C             5.363001864644      0.799273730475      4.600713134762
C             6.061289925388      0.784214529527      3.392042735236
C             6.418467166724      1.984112788129      2.774593605935
C             6.071571668565      3.191131532673      3.375234233664
H             5.113066602683      4.164272585834      5.036013707083
H             4.477255773359      2.028359265051      6.135270367475
H             6.326971994036     -0.164135787356      2.932067893678
H             6.961188079248      1.957353177774      1.835373411113
O             6.399023274806      4.386957170733      2.807071414634
H             6.872997975099      4.213753695553      1.977523152223
H             5.085474494439     -0.135909280898      5.080204640449
