25
-1.4409542505845
C             0.697092438124      1.206228481101                   0
H             1.238751481843      2.142336379831      0.004928675883
C             1.394066202537                   0                   0
H             2.475325479251      0.000114333064      0.010977564436
C             0.696663336265       -1.2063436648     -0.001377484826
H             1.238021589736     -2.142768045099      0.001261014205
C             -0.69694068372     -1.206903024974     -0.000507818264
H            -1.237799125947      -2.14373787832      -0.00169760104
C            -1.394117326826      0.000170803848      0.001981006868
H            -2.475865900014      0.000265443726      0.001461018677
C             -0.69676396638      1.206847404824      -9.5703779e-05
H            -1.237425243665      2.143795338383     -0.000181194041
C             6.813364826577      -0.21481079528              2.7496
C             7.524088220335      0.985198232838              2.7491
C             6.838731902769      2.200726269525              2.7487
C             5.442848601606      2.215785470473              2.7491
C             4.729533349418      1.015887211871              2.7497
C             5.423151140656     -0.191131532673              2.7496
H             7.340680887661     -1.164272585834              2.7499
H             8.610570495502      0.971640734949              2.7489
H              4.91165766939      3.164135787356              2.7492
H             3.644784344692      1.042646822226              2.7501
O             4.767381902769     -1.386957170733              2.7491
H              3.81198468371     -1.213753695553              2.7448
H             7.392747412695      3.135909280898              2.7481
