28
-0.0598658018826426
C             0.697092438124      1.206228481101                   0
H             1.238751481843      2.142336379831      0.004928675883
C             1.394066202537                   0                   0
H             2.475325479251      0.000114333064      0.010977564436
C             0.696663336265       -1.2063436648     -0.001377484826
H             1.238021589736     -2.142768045099      0.001261014205
C             -0.69694068372     -1.206903024974     -0.000507818264
H            -1.237799125947      -2.14373787832      -0.00169760104
C            -1.394117326826      0.000170803848      0.001981006868
H            -2.475865900014      0.000265443726      0.001461018677
C             -0.69676396638      1.206847404824      -9.5703779e-05
H            -1.237425243665      2.143795338383     -0.000181194041
C             0.855337043677      0.810010291464      6.777055372185
C             0.742213541344     -0.548597969746      7.095069796844
C             1.851702077418     -1.364514522639      7.318436005648
C             3.138319615065     -0.800736713025      7.220547697332
C              3.26935263181      0.556405928683      6.903414608584
C             2.143075090686      1.347432985263      6.685476519407
H            -0.019156023128      1.429019855634      6.606697934494
H             4.020510837465     -1.410794995556      7.388992974606
H             4.260990656379      0.995357884525      6.826959825251
C             1.361455848545     -2.666860632927      7.612830618699
C            -0.013132371144     -2.619156472119      7.563795603302
H            -0.760736859469     -3.384065312031      7.724118068229
N            -0.376435879387     -1.336021615559      7.250430391961
H            -1.326186649076     -1.007298958766      7.146602482014
H             2.266406555016      2.399846034202      6.440168859863
H             1.954880552861       -3.5434334662      7.836382574124
