24
-0.436055188358888
C             0.697092438124      1.206228481101                   0
H             1.238751481843      2.142336379831      0.004928675883
C             1.394066202537                   0                   0
H             2.475325479251      0.000114333064      0.010977564436
C             0.696663336265       -1.2063436648     -0.001377484826
H             1.238021589736     -2.142768045099      0.001261014205
C             -0.69694068372     -1.206903024974     -0.000507818264
H            -1.237799125947      -2.14373787832      -0.00169760104
C            -1.394117326826      0.000170803848      0.001981006868
H            -2.475865900014      0.000265443726      0.001461018677
C             -0.69676396638      1.206847404824      -9.5703779e-05
H            -1.237425243665      2.143795338383     -0.000181194041
C             5.500585519651      3.206521240926      5.196585363232
H             5.501622062336      4.140683073058      5.741615093175
C             6.707296745954      2.603648372977      4.848516550634
H             7.643637581134      3.066444341413      5.128387727155
C             6.706499979491      1.397595067358      4.150610767508
H             7.643542169694      0.928372532646      3.882751687033
C             5.499883175455      0.793292471885      3.802720705787
H             5.499903451308     -0.142937352146      3.260814322047
C             4.292573577189      1.395467089008      4.153260230802
H             3.355704512361      0.927387190568      3.882413744791
C             4.293161002261      2.603475757844      4.848306382036
H              3.35646063451      3.072116252659      5.118777382218
