28
-0.0156534630531025
C             0.697092438124      1.206228481101                   0
H             1.238751481843      2.142336379831      0.004928675883
C             1.394066202537                   0                   0
H             2.475325479251      0.000114333064      0.010977564436
C             0.696663336265       -1.2063436648     -0.001377484826
H             1.238021589736     -2.142768045099      0.001261014205
C             -0.69694068372     -1.206903024974     -0.000507818264
H            -1.237799125947      -2.14373787832      -0.00169760104
C            -1.394117326826      0.000170803848      0.001981006868
H            -2.475865900014      0.000265443726      0.001461018677
C             -0.69676396638      1.206847404824      -9.5703779e-05
H            -1.237425243665      2.143795338383     -0.000181194041
C             5.214633631979      2.586302053215      8.443834772623
C             4.085654137134      3.363574010605      8.159229584731
C             2.881610989339      2.810687029604      7.721996030797
C             2.796266764429       1.41455465224      7.559690837258
C             3.915951329466       0.62250541015      7.839947273975
C             5.105883147653      1.202376844186      8.275301500616
H             6.142736129595      3.034130482416      8.782963174438
H             1.872500409096      0.955583783911      7.220857935694
H             3.854000827696     -0.455754288406      7.715897755625
C             1.969936944255      3.886425773062       7.53557839364
C             2.625446731555      5.053002010651      7.857416387117
H             2.295326108595       6.08290090948      7.851945593151
N             3.901795513357      4.726064649793      8.232473721625
H             4.611505607833      5.384211615212      8.522334892203
H              5.96444267353       0.56936213852      8.487734187453
H             0.943770907001      3.810791320527      7.201256719084
