24
-0.376302714608793
C             0.697092438124      1.206228481101                   0
H             1.238751481843      2.142336379831      0.004928675883
C             1.394066202537                   0                   0
H             2.475325479251      0.000114333064      0.010977564436
C             0.696663336265       -1.2063436648     -0.001377484826
H             1.238021589736     -2.142768045099      0.001261014205
C             -0.69694068372     -1.206903024974     -0.000507818264
H            -1.237799125947      -2.14373787832      -0.00169760104
C            -1.394117326826      0.000170803848      0.001981006868
H            -2.475865900014      0.000265443726      0.001461018677
C             -0.69676396638      1.206847404824      -9.5703779e-05
H            -1.237425243665      2.143795338383     -0.000181194041
C             4.697092438124       0.91255443799      5.133484002672
H             5.238751481843      1.228090755324        6.0148233938
C             5.394066202537                 0.5                 4.0
H             6.475325479251      0.489723567916      4.003861986098
C             4.696663336265      0.088700579191      2.865936632498
H             5.238021589736     -0.234054799642      1.986887972224
C              3.30305931628      0.087692047494      2.865708449352
H             2.762200874053     -0.231606313225      1.984964721092
C             2.605882673174      0.498196880821      4.000838047368
H             1.524134099986      0.498717878632      4.000749133328
C              3.30323603362      0.912856054505      5.134032868108
H             2.762574756335      1.233391455598      6.014446687942
