25
-0.00364770987135393
C             0.697092438124      1.206228481101                   0
H             1.238751481843      2.142336379831      0.004928675883
C             1.394066202537                   0                   0
H             2.475325479251      0.000114333064      0.010977564436
C             0.696663336265       -1.2063436648     -0.001377484826
H             1.238021589736     -2.142768045099      0.001261014205
C             -0.69694068372     -1.206903024974     -0.000507818264
H            -1.237799125947      -2.14373787832      -0.00169760104
C            -1.394117326826      0.000170803848      0.001981006868
H            -2.475865900014      0.000265443726      0.001461018677
C             -0.69676396638      1.206847404824      -9.5703779e-05
H            -1.237425243665      2.143795338383     -0.000181194041
C             7.623535174396       0.78518920472       6.57919460236
C             7.979329883977      1.985198232838      7.194449116419
C             7.636998135356      3.200726269525      6.600713134762
C             6.938710074612      3.215785470473      5.392042735236
C             6.581532833276      2.015887211871      4.774593605935
C             6.928428331435      0.808868467327      5.375234233664
H             7.886933397317     -0.164272585834      7.036013707083
H             8.522744226641      1.971640734949      8.135270367475
H             6.673028005964      4.164135787356      4.932067893678
H             6.038811920752      2.042646822226      3.835373411113
O             6.600976725194     -0.386957170733      4.807071414634
H             6.127002024901     -0.213753695553      3.977523152223
H             7.914525505561      4.135909280898      7.080204640449
