28
-0.284853318038353
C             0.697092438124      1.206228481101                   0
H             1.238751481843      2.142336379831      0.004928675883
C             1.394066202537                   0                   0
H             2.475325479251      0.000114333064      0.010977564436
C             0.696663336265       -1.2063436648     -0.001377484826
H             1.238021589736     -2.142768045099      0.001261014205
C             -0.69694068372     -1.206903024974     -0.000507818264
H            -1.237799125947      -2.14373787832      -0.00169760104
C            -1.394117326826      0.000170803848      0.001981006868
H            -2.475865900014      0.000265443726      0.001461018677
C             -0.69676396638      1.206847404824      -9.5703779e-05
H            -1.237425243665      2.143795338383     -0.000181194041
C             7.100075315282     -0.273820967896      2.380775213717
C             7.764119864502      0.846206548937      1.866645165297
C             7.681117185173      2.107555279147      2.457142440669
C             6.898277234756      2.262618142755      3.617284392354
C             6.227607302474      1.152814646849      4.144652612678
C             6.328803097813     -0.095373649792      3.533500175285
H             7.176455661119     -1.247145509055      1.907765698646
H             6.814669689858      3.232039724416       4.09898746256
H             5.622265668589      1.268490114334      5.040225511837
C             8.473939770541       2.99029698074      1.672722667524
C             9.014762320327       2.26168985577      0.637920502622
H             9.668555097166       2.55031809855      -0.17383687463
N             8.579911406215      0.968810719386      0.764373956901
H             8.819067281288      0.209253162959      0.142488010451
H             5.799853080072     -0.945124353282      3.959053161589
H             8.629724216738       4.04614367478      1.850000002533
