28
-0.140638509403173
C             0.697092438124      1.206228481101                   0
H             1.238751481843      2.142336379831      0.004928675883
C             1.394066202537                   0                   0
H             2.475325479251      0.000114333064      0.010977564436
C             0.696663336265       -1.2063436648     -0.001377484826
H             1.238021589736     -2.142768045099      0.001261014205
C             -0.69694068372     -1.206903024974     -0.000507818264
H            -1.237799125947      -2.14373787832      -0.00169760104
C            -1.394117326826      0.000170803848      0.001981006868
H            -2.475865900014      0.000265443726      0.001461018677
C             -0.69676396638      1.206847404824      -9.5703779e-05
H            -1.237425243665      2.143795338383     -0.000181194041
C             7.810010291464      1.144662956323      4.777055372185
C             6.451402030254      1.257786458656      5.095069796844
C             5.635485477361      0.148297922582      5.318436005648
C             6.199263286975     -1.138319615065      5.220547697332
C             7.556405928683      -1.26935263181      4.903414608584
C             8.347432985263     -0.143075090686      4.685476519407
H             8.429019855634      2.019156023128      4.606697934494
H             5.589205004444     -2.020510837465      5.388992974606
H             7.995357884525     -2.260990656379      4.826959825251
C             4.333139367073      0.638544151455      5.612830618699
C             4.380843527881      2.013132371144      5.563795603302
H             3.615934687969      2.760736859469      5.724118068229
N             5.663978384441      2.376435879387      5.250430391961
H             5.992701041234      3.326186649076      5.146602482014
H             9.399846034202     -0.266406555016      4.440168859863
H               3.4565665338      0.045119447139      5.836382574124
