28
-0.209968464698365
C             0.697092438124      1.206228481101                   0
H             1.238751481843      2.142336379831      0.004928675883
C             1.394066202537                   0                   0
H             2.475325479251      0.000114333064      0.010977564436
C             0.696663336265       -1.2063436648     -0.001377484826
H             1.238021589736     -2.142768045099      0.001261014205
C             -0.69694068372     -1.206903024974     -0.000507818264
H            -1.237799125947      -2.14373787832      -0.00169760104
C            -1.394117326826      0.000170803848      0.001981006868
H            -2.475865900014      0.000265443726      0.001461018677
C             -0.69676396638      1.206847404824      -9.5703779e-05
H            -1.237425243665      2.143795338383     -0.000181194041
C             3.598080857057      2.144662956323      8.590017175827
C             2.643368155927      2.257786458656      7.572435120157
C              2.04196906831      1.148297922582      6.977513762386
C             2.408631734852     -0.138319615065      7.416815513443
C             3.361848366942      -0.26935263181      8.433568973348
C             3.946101816912      0.856924909314      9.009649454839
H             4.055119507906      3.019156023128      9.040916464738
H             1.957724704319     -1.020510837465      6.972712181619
H              3.64753612947     -1.260990656379      8.775485126481
C             1.135842799526      1.638544151455      5.996846252882
C             1.202160448939      3.013132371144      6.013641760309
H             0.680862701559      3.760736859469       5.43137250583
N             2.115110110902      3.376435879387      6.968186536901
H             2.369389046935      4.326186649076       7.20095475351
H             4.684751006289      0.733593444984      9.798412060721
H             0.503954710426      1.045119447139      5.349487888713
