24
-0.212002284147209
C             0.697092438124      1.206228481101                   0
H             1.238751481843      2.142336379831      0.004928675883
C             1.394066202537                   0                   0
H             2.475325479251      0.000114333064      0.010977564436
C             0.696663336265       -1.2063436648     -0.001377484826
H             1.238021589736     -2.142768045099      0.001261014205
C             -0.69694068372     -1.206903024974     -0.000507818264
H            -1.237799125947      -2.14373787832      -0.00169760104
C            -1.394117326826      0.000170803848      0.001981006868
H            -2.475865900014      0.000265443726      0.001461018677
C             -0.69676396638      1.206847404824      -9.5703779e-05
H            -1.237425243665      2.143795338383     -0.000181194041
C             4.197092438124      1.775348722103      7.924024625079
H             4.738751481843      2.373291695964      8.644292970851
C             4.894066202537                 1.0                 7.0
H             5.975325479251      0.991664189642      7.007143826612
C             4.196663336265      0.225632453839      6.075001708909
H             4.738021589736     -0.378310742746      5.359355010466
C              2.80305931628      0.224606700813      6.075132225047
H             2.262200874053     -0.376667708756      5.356710313895
C             2.105882673174      0.998592251294      7.001404210008
H             1.024134099986      0.999051418699      7.001142466394
C              2.80323603362      1.775819871951      7.924437230955
H             2.262574756335      2.378143883905      8.642126036868
