25
-0.406267775420793
C             0.697092438124      1.206228481101                   0
H             1.238751481843      2.142336379831      0.004928675883
C             1.394066202537                   0                   0
H             2.475325479251      0.000114333064      0.010977564436
C             0.696663336265       -1.2063436648     -0.001377484826
H             1.238021589736     -2.142768045099      0.001261014205
C             -0.69694068372     -1.206903024974     -0.000507818264
H            -1.237799125947      -2.14373787832      -0.00169760104
C            -1.394117326826      0.000170803848      0.001981006868
H            -2.475865900014      0.000265443726      0.001461018677
C             -0.69676396638      1.206847404824      -9.5703779e-05
H            -1.237425243665      2.143795338383     -0.000181194041
C             5.418358158748      4.324764826577      3.223817586712
C             4.811036657391      3.640888220335      2.170905889832
C             4.804269049209      2.245531902769      2.158384048615
C             5.404593038573      1.534548601606      3.198975699197
C             6.012922552632      2.217033349418      4.253833325291
C             6.014418527444      3.609151140656      4.256224429672
H             5.427129246403      5.410680887661      3.239609556169
H             4.344138611416      4.195870495502      1.361814752249
H             5.397431277591       0.44765766939      3.186771165305
H             6.475596337293      1.651484344692      5.056007827654
O             6.597764359176      4.316881902769      5.265609048615
H             6.971886530822       3.68918468371      5.905007658145
H             4.331097158764      1.712647412695      1.337626293652
