28
-0.20312566734739
C             0.697092438124      1.206228481101                   0
H             1.238751481843      2.142336379831      0.004928675883
C             1.394066202537                   0                   0
H             2.475325479251      0.000114333064      0.010977564436
C             0.696663336265       -1.2063436648     -0.001377484826
H             1.238021589736     -2.142768045099      0.001261014205
C             -0.69694068372     -1.206903024974     -0.000507818264
H            -1.237799125947      -2.14373787832      -0.00169760104
C            -1.394117326826      0.000170803848      0.001981006868
H            -2.475865900014      0.000265443726      0.001461018677
C             -0.69676396638      1.206847404824      -9.5703779e-05
H            -1.237425243665      2.143795338383     -0.000181194041
C             7.120165114961      2.810010291464      3.234592810513
C             6.863190075846      1.451402030254      3.453439629872
C             7.712352228892      0.635485477361       4.20162470908
C             8.875539855606      1.199263286975      4.760159716168
C             9.147584321217      2.556405928683      4.551030913305
C             8.281168403479      3.347432985263      3.799152221063
H              6.44801062252      3.429019855634      2.649812408347
H             9.555317226564      0.589205004444      5.347133216635
H            10.044595433518      2.995357884525      4.980638140982
C             7.140589234052     -0.666860632927      4.211454808283
C             5.974678423757     -0.619156472119      3.481695129429
H             5.247072712421     -1.384065312031      3.246736212691
N             5.816730962006      0.663978384441      3.028661141625
H             5.046136623164      0.992701041234      2.463868149144
H             8.510630414447      4.399846034202       3.64837528832
H             7.542734125511       -1.5434334662      4.701768832904
