25
-0.0309177449810572
C             0.697092438124      1.206228481101                   0
H             1.238751481843      2.142336379831      0.004928675883
C             1.394066202537                   0                   0
H             2.475325479251      0.000114333064      0.010977564436
C             0.696663336265       -1.2063436648     -0.001377484826
H             1.238021589736     -2.142768045099      0.001261014205
C             -0.69694068372     -1.206903024974     -0.000507818264
H            -1.237799125947      -2.14373787832      -0.00169760104
C            -1.394117326826      0.000170803848      0.001981006868
H            -2.475865900014      0.000265443726      0.001461018677
C             -0.69676396638      1.206847404824      -9.5703779e-05
H            -1.237425243665      2.143795338383     -0.000181194041
C                     7.2504             -0.5114              4.8118
C                     7.2509              0.8832              4.8273
C                     7.2513              1.5932               3.626
C                     7.2509              0.9083              2.4096
C                     7.2503             -0.4875              2.3918
C                     7.2504              -1.186               3.596
H                     7.2501               -1.07              5.7432
H                     7.2511              1.4147               5.775
H                     7.2508               1.464              1.4754
H                     7.2499             -1.0067               1.439
O                     7.2509             -2.5495               3.626
H                     7.2552             -2.8772               2.712
H                     7.2519              2.6801              3.6382
