25
-1.41108777142115
C             0.697092438124      1.206228481101                   0
H             1.238751481843      2.142336379831      0.004928675883
C             1.394066202537                   0                   0
H             2.475325479251      0.000114333064      0.010977564436
C             0.696663336265       -1.2063436648     -0.001377484826
H             1.238021589736     -2.142768045099      0.001261014205
C             -0.69694068372     -1.206903024974     -0.000507818264
H            -1.237799125947      -2.14373787832      -0.00169760104
C            -1.394117326826      0.000170803848      0.001981006868
H            -2.475865900014      0.000265443726      0.001461018677
C             -0.69676396638      1.206847404824      -9.5703779e-05
H            -1.237425243665      2.143795338383     -0.000181194041
C              1.56588920472             -1.8118      4.538847238892
C             2.773398232838             -1.8273       3.84111422619
C             3.388076269525              -0.626      3.485767816029
C             2.795135470473              0.5904       3.82856422619
C             1.586637211871              0.6082      4.526983841433
C             0.981668467327              -0.596      4.876147238892
H             1.082277414166             -2.7432      4.818407046514
H             3.233590734949              -2.775       3.57519102111
H             3.276435787356              1.5246      3.550800828731
H             1.137196822226               1.561      4.786930251594
O            -0.199407170733              -0.626       5.55746422619
H            -0.485353695553               0.288      5.717590316954
H             4.329059280898             -0.6382      2.941798200787
