25
-0.0298314641248147
C             0.697092438124      1.206228481101                   0
H             1.238751481843      2.142336379831      0.004928675883
C             1.394066202537                   0                   0
H             2.475325479251      0.000114333064      0.010977564436
C             0.696663336265       -1.2063436648     -0.001377484826
H             1.238021589736     -2.142768045099      0.001261014205
C             -0.69694068372     -1.206903024974     -0.000507818264
H            -1.237799125947      -2.14373787832      -0.00169760104
C            -1.394117326826      0.000170803848      0.001981006868
H            -2.475865900014      0.000265443726      0.001461018677
C             -0.69676396638      1.206847404824      -9.5703779e-05
H            -1.237425243665      2.143795338383     -0.000181194041
C             2.538847238892              2.8118       7.56588920472
C              1.84111422619              2.8273      8.773398232838
C             1.485767816029               1.626      9.388076269525
C              1.82856422619              0.4096      8.795135470473
C             2.526983841433              0.3918      7.586637211871
C             2.876147238892               1.596      6.981668467327
H             2.818407046514              3.7432      7.082277414166
H              1.57519102111               3.775      9.233590734949
H             1.550800828731             -0.5246      9.276435787356
H             2.786930251594              -0.561      7.137196822226
O              3.55746422619               1.626      5.800592829267
H             3.717590316954               0.712      5.514646304447
H             0.941798200787              1.6382     10.329059280898
