24
-0.756148282273973
C             0.697092438124      1.206228481101                   0
H             1.238751481843      2.142336379831      0.004928675883
C             1.394066202537                   0                   0
H             2.475325479251      0.000114333064      0.010977564436
C             0.696663336265       -1.2063436648     -0.001377484826
H             1.238021589736     -2.142768045099      0.001261014205
C             -0.69694068372     -1.206903024974     -0.000507818264
H            -1.237799125947      -2.14373787832      -0.00169760104
C            -1.394117326826      0.000170803848      0.001981006868
H            -2.475865900014      0.000265443726      0.001461018677
C             -0.69676396638      1.206847404824      -9.5703779e-05
H            -1.237425243665      2.143795338383     -0.000181194041
C             4.977042660038      2.154475995819      6.133585677093
H             5.347919255067      2.658179848389      7.015883693479
C             5.872887204471      1.621038527809      5.209644879838
H             6.937699869467      1.705467327673      5.377834979697
C             5.395558833826      0.967671799301      4.075225540436
H             6.091301026163      0.551290734289      3.359309378587
C              4.02322392219      0.845644815618      3.865607937926
H             3.653262000061      0.338414542859      2.984679768819
C             3.127032788156      1.377325535576      4.791483608561
H             2.061701972428      1.283900625387      4.628626941041
C              3.60425459132      2.033843325878      5.924452356144
H             2.909107872465      2.448331734417      6.642196358359
