24
-0.302644829674552
C             0.697092438124      1.206228481101                   0
H             1.238751481843      2.142336379831      0.004928675883
C             1.394066202537                   0                   0
H             2.475325479251      0.000114333064      0.010977564436
C             0.696663336265       -1.2063436648     -0.001377484826
H             1.238021589736     -2.142768045099      0.001261014205
C             -0.69694068372     -1.206903024974     -0.000507818264
H            -1.237799125947      -2.14373787832      -0.00169760104
C            -1.394117326826      0.000170803848      0.001981006868
H            -2.475865900014      0.000265443726      0.001461018677
C             -0.69676396638      1.206847404824      -9.5703779e-05
H            -1.237425243665      2.143795338383     -0.000181194041
C             3.742498182121      0.685951829135      7.688103419607
H             3.931323430794      1.214139464845      8.612808592352
C             4.809993723411      0.238399361199      6.912919806088
H             5.826005982685      0.413852456891      7.238768611044
C             4.567243229395      -0.44646673606      5.723941959603
H             5.396229586147     -0.796149569573      5.123550523486
C             3.257875127965     -0.685803026037      5.311138678392
H             3.070050831728     -1.217433284185      4.387948494887
C             2.189899817115     -0.240043454682      6.088194554203
H               1.1733562966     -0.424538566523      5.767599670363
C             2.432489919993      0.447962026445      7.275701582106
H             1.603979440859      0.795799069023      7.878002032082
