24
-0.903464428636738
C             0.697092438124      1.206228481101                   0
H             1.238751481843      2.142336379831      0.004928675883
C             1.394066202537                   0                   0
H             2.475325479251      0.000114333064      0.010977564436
C             0.696663336265       -1.2063436648     -0.001377484826
H             1.238021589736     -2.142768045099      0.001261014205
C             -0.69694068372     -1.206903024974     -0.000507818264
H            -1.237799125947      -2.14373787832      -0.00169760104
C            -1.394117326826      0.000170803848      0.001981006868
H            -2.475865900014      0.000265443726      0.001461018677
C             -0.69676396638      1.206847404824      -9.5703779e-05
H            -1.237425243665      2.143795338383     -0.000181194041
C             4.977042660038      2.727297128001      5.289066069686
H             5.347919255067      2.898860227303      6.290431868868
C             5.872887204471      2.542036239563      4.238399361199
H             6.937699869467      2.563848957717      4.425322707155
C             5.395558833826      2.316066611171      2.948929296958
H             6.091301026163      2.169654145229      2.133777451032
C              4.02322392219      2.273092197521      2.710217496243
H             3.653262000061      2.097746831828      1.708932825702
C             3.127032788156      2.456040517107      3.762101547747
H             2.061701972428      2.423950079173       3.57711313786
C              3.60425459132      2.685467306637      5.051286228166
H             2.909107872465      2.829476099034      5.867508355557
