24
-1.68886918850574
C             0.697092438124      1.206228481101                   0
H             1.238751481843      2.142336379831      0.004928675883
C             1.394066202537                   0                   0
H             2.475325479251      0.000114333064      0.010977564436
C             0.696663336265       -1.2063436648     -0.001377484826
H             1.238021589736     -2.142768045099      0.001261014205
C             -0.69694068372     -1.206903024974     -0.000507818264
H            -1.237799125947      -2.14373787832      -0.00169760104
C            -1.394117326826      0.000170803848      0.001981006868
H            -2.475865900014      0.000265443726      0.001461018677
C             -0.69676396638      1.206847404824      -9.5703779e-05
H            -1.237425243665      2.143795338383     -0.000181194041
C             5.477042660038      1.730012527505      3.447687947786
H             5.847919255067      2.683002297728       3.79979284503
C             6.372887204471      0.727478022825      3.082795229258
H             7.437699869467      0.900264748062      3.157366534189
C             5.895558833826     -0.502220624423      2.633755635809
H             6.591301026163     -1.281369063907      2.352976627783
C              4.52322392219      -0.73043831485      2.551616669385
H             4.153262000061     -1.685248958804      2.202827875241
C             3.627032788156      0.271994155382      2.919120802796
H             2.561701972428      0.095744274046      2.854417732322
C              4.10425459132      1.503174233559      3.365023714964
H             3.409107872465      2.282047727209      3.648419506075
