28
-0.263406001636162
C             0.697092438124      1.206228481101                   0
H             1.238751481843      2.142336379831      0.004928675883
C             1.394066202537                   0                   0
H             2.475325479251      0.000114333064      0.010977564436
C             0.696663336265       -1.2063436648     -0.001377484826
H             1.238021589736     -2.142768045099      0.001261014205
C             -0.69694068372     -1.206903024974     -0.000507818264
H            -1.237799125947      -2.14373787832      -0.00169760104
C            -1.394117326826      0.000170803848      0.001981006868
H            -2.475865900014      0.000265443726      0.001461018677
C             -0.69676396638      1.206847404824      -9.5703779e-05
H            -1.237425243665      2.143795338383     -0.000181194041
C             6.222944627815      4.273820967896      4.413697946785
C             5.904930203156      3.153793451063      3.636425989395
C             5.681563994352      1.892444720853      4.189312970396
C             5.779452302668      1.737381857245       5.58544534776
C             6.096585391416      2.847185353151       6.37749458985
C             6.314523480593      4.095373649792      5.797623155814
H             6.393302065506      5.247145509055      3.965869517584
H             5.611007025394      0.767960275584      6.044416216089
H             6.173040174749      2.731509885666      7.455754288406
C             5.387169381301       1.00970301926      3.113574226938
C             5.436204396698       1.73831014423      1.946997989349
H             5.275881931771       1.44968190145       0.91709909052
N             5.749569608039      3.031189280614      2.273935350207
H             5.853397517986      3.790746837041      1.615788384788
H             6.559831140137      4.945124353282       6.43063786148
H             5.163617425876      -0.04614367478      3.189208679473
