24
-1.90949269327979
C             0.697092438124      1.206228481101                   0
H             1.238751481843      2.142336379831      0.004928675883
C             1.394066202537                   0                   0
H             2.475325479251      0.000114333064      0.010977564436
C             0.696663336265       -1.2063436648     -0.001377484826
H             1.238021589736     -2.142768045099      0.001261014205
C             -0.69694068372     -1.206903024974     -0.000507818264
H            -1.237799125947      -2.14373787832      -0.00169760104
C            -1.394117326826      0.000170803848      0.001981006868
H            -2.475865900014      0.000265443726      0.001461018677
C             -0.69676396638      1.206847404824      -9.5703779e-05
H            -1.237425243665      2.143795338383     -0.000181194041
C             4.000585519651      1.872005332691      3.741921557829
H             4.001622062336      2.936241459317      3.934579809451
C             5.207296745954      1.186443602235      3.621038527809
H             6.143637581134       1.71705113861      3.725745863701
C             5.206499979491     -0.185573625302      3.377716137847
H             6.143542169694     -0.718111779773      3.286494495089
C             3.999883175455     -0.872417723761      3.257490074319
H             3.999903451308     -1.937528879799      3.068474102963
C             2.792573577189     -0.186667101039      3.380933630414
H             1.855704512361     -0.719153281506      3.286513940096
C             2.793161002261      1.186209515174       3.62090007178
H              1.85646063451      1.719094060201      3.714775185584
