25
-0.0455533883920734
C             0.697092438124      1.206228481101                   0
H             1.238751481843      2.142336379831      0.004928675883
C             1.394066202537                   0                   0
H             2.475325479251      0.000114333064      0.010977564436
C             0.696663336265       -1.2063436648     -0.001377484826
H             1.238021589736     -2.142768045099      0.001261014205
C             -0.69694068372     -1.206903024974     -0.000507818264
H            -1.237799125947      -2.14373787832      -0.00169760104
C            -1.394117326826      0.000170803848      0.001981006868
H            -2.475865900014      0.000265443726      0.001461018677
C             -0.69676396638      1.206847404824      -9.5703779e-05
H            -1.237425243665      2.143795338383     -0.000181194041
C                     7.7496       3.21481079528      3.813364826577
C                     7.7491      2.014801767162      4.524088220335
C                     7.7487      0.799273730475      3.838731902769
C                     7.7491      0.784214529527      2.442848601606
C                     7.7497      1.984112788129      1.729533349418
C                     7.7496      3.191131532673      2.423151140656
H                     7.7499      4.164272585834      4.340680887661
H                     7.7489      2.028359265051      5.610570495502
H                     7.7492     -0.164135787356       1.91165766939
H                     7.7501      1.957353177774      0.644784344692
O                     7.7491      4.386957170733      1.767381902769
H                     7.7448      4.213753695553       0.81198468371
H                     7.7481     -0.135909280898      4.392747412695
