24
-0.133342462229441
C             0.697092438124      1.206228481101                   0
H             1.238751481843      2.142336379831      0.004928675883
C             1.394066202537                   0                   0
H             2.475325479251      0.000114333064      0.010977564436
C             0.696663336265       -1.2063436648     -0.001377484826
H             1.238021589736     -2.142768045099      0.001261014205
C             -0.69694068372     -1.206903024974     -0.000507818264
H            -1.237799125947      -2.14373787832      -0.00169760104
C            -1.394117326826      0.000170803848      0.001981006868
H            -2.475865900014      0.000265443726      0.001461018677
C             -0.69676396638      1.206847404824      -9.5703779e-05
H            -1.237425243665      2.143795338383     -0.000181194041
C             3.977042660038      2.633585677093      7.654475995819
H             4.347919255067      3.510955017596      8.166716565433
C             4.872887204471      1.709644879838      7.121038527809
H             5.937699869467      1.866857415261      7.224481027019
C             4.395558833826      0.576603025262      6.465285925596
H             5.091301026163     -0.141951635618      6.053474874961
C              3.02322392219       0.36611575619      6.344765248584
H             2.653262000061     -0.513622630141      5.835474211607
C             2.127032788156      1.289502601693      6.880756740121
H             1.061701972428      1.127165922364      6.786431183967
C              2.60425459132      2.424548059923       7.53367756207
H             1.909107872465        3.1423775524      7.948017897132
