25
-0.119820521799057
C             0.697092438124      1.206228481101                   0
H             1.238751481843      2.142336379831      0.004928675883
C             1.394066202537                   0                   0
H             2.475325479251      0.000114333064      0.010977564436
C             0.696663336265       -1.2063436648     -0.001377484826
H             1.238021589736     -2.142768045099      0.001261014205
C             -0.69694068372     -1.206903024974     -0.000507818264
H            -1.237799125947      -2.14373787832      -0.00169760104
C            -1.394117326826      0.000170803848      0.001981006868
H            -2.475865900014      0.000265443726      0.001461018677
C             -0.69676396638      1.206847404824      -9.5703779e-05
H            -1.237425243665      2.143795338383     -0.000181194041
C             7.043282413288      2.813364826577      6.890552636532
C             6.004294110168      3.524088220335      6.290115109771
C             4.951815951385      2.838731902769      5.682004681267
C             4.938574300803      1.442848601606      5.674821490954
C             5.977416674709      0.729533349418      6.275290235497
C             7.022775570328      1.423151140656      6.878713005229
H             7.865390443831      3.340680887661       7.36554333943
H             6.016135247751      4.610570495502      6.296720653635
H             4.117228834695       0.91165766939      5.200732935053
H             5.954042172346     -0.355215655308      6.262256840481
O             8.058640951385      0.767381902769      7.476192811557
H             7.910792341855      -0.18801531629      7.385867164731
H             4.142223706348      3.392747412695      5.213893560338
