25
-0.227272088145903
C             0.697092438124      1.206228481101                   0
H             1.238751481843      2.142336379831      0.004928675883
C             1.394066202537                   0                   0
H             2.475325479251      0.000114333064      0.010977564436
C             0.696663336265       -1.2063436648     -0.001377484826
H             1.238021589736     -2.142768045099      0.001261014205
C             -0.69694068372     -1.206903024974     -0.000507818264
H            -1.237799125947      -2.14373787832      -0.00169760104
C            -1.394117326826      0.000170803848      0.001981006868
H            -2.475865900014      0.000265443726      0.001461018677
C             -0.69676396638      1.206847404824      -9.5703779e-05
H            -1.237425243665      2.143795338383     -0.000181194041
C             6.379235174396      -0.40301079528       5.88810539764
C             6.037729883977      0.812498232838      5.295600883581
C             5.340398135356      0.826726269525      4.086986865238
C             4.984560074612     -0.374614529527      3.471457264764
C             5.325282833276     -1.592312788129      4.062806394065
C             6.021428331435     -1.595131532673      5.268365766336
H             6.921933397317     -0.421072585834      6.828686292917
H             6.315394226641      1.746640734949      5.776129632525
H             4.441028005964     -0.360464212644      2.530232106322
H             5.042161920752     -2.518353177774      3.573226588887
O             6.375726725194     -2.760957170733      5.881028585366
H             6.065602024901     -3.501753695553      5.335276847777
H             5.074475505561      1.774109280898      3.625195359551
