24
-0.849362924427953
C             0.697092438124      1.206228481101                   0
H             1.238751481843      2.142336379831      0.004928675883
C             1.394066202537                   0                   0
H             2.475325479251      0.000114333064      0.010977564436
C             0.696663336265       -1.2063436648     -0.001377484826
H             1.238021589736     -2.142768045099      0.001261014205
C             -0.69694068372     -1.206903024974     -0.000507818264
H            -1.237799125947      -2.14373787832      -0.00169760104
C            -1.394117326826      0.000170803848      0.001981006868
H            -2.475865900014      0.000265443726      0.001461018677
C             -0.69676396638      1.206847404824      -9.5703779e-05
H            -1.237425243665      2.143795338383     -0.000181194041
C             5.197092438124      3.687903160092      4.209459377593
H             5.738751481843      4.608933620832      4.376866606529
C             5.894066202537                 2.5                 4.0
H             6.975325479251      2.498206362028      4.010830644294
C             5.196663336265      1.312222603838      3.789164063231
H             5.738021589736      0.389566443461      3.629154090371
C              3.80305931628      1.311520725588      3.789923385729
H             3.262200874053      0.389125102332      3.626072013368
C             3.105882673174      2.499824210721      4.001980570699
H             2.024134099986      2.500007707809       4.00148491634
C              3.80323603362       3.68852929976      4.209472602746
H             3.262574756335      4.611257734126      4.372087712505
