25
-0.17209710431458
C             0.697092438124      1.206228481101                   0
H             1.238751481843      2.142336379831      0.004928675883
C             1.394066202537                   0                   0
H             2.475325479251      0.000114333064      0.010977564436
C             0.696663336265       -1.2063436648     -0.001377484826
H             1.238021589736     -2.142768045099      0.001261014205
C             -0.69694068372     -1.206903024974     -0.000507818264
H            -1.237799125947      -2.14373787832      -0.00169760104
C            -1.394117326826      0.000170803848      0.001981006868
H            -2.475865900014      0.000265443726      0.001461018677
C             -0.69676396638      1.206847404824      -9.5703779e-05
H            -1.237425243665      2.143795338383     -0.000181194041
C              0.42080539764       2.21481079528      6.376464825604
C            -0.194449116419      1.014801767162      6.020670116023
C             0.399286865238     -0.200726269525      6.363001864644
C             1.607957264764     -0.215785470473      7.061289925388
C             2.225406394065      0.984112788129      7.418467166724
C             1.624765766336      2.191131532673      7.071571668565
H            -0.036013707083      3.164272585834      6.113066602683
H            -1.135270367475      1.028359265051      5.477255773359
H             2.067932106322     -1.164135787356      7.326971994036
H             3.164626588887      0.957353177774      7.961188079248
O             2.192928585366      3.386957170733      7.399023274806
H             3.022476847777      3.213753695553      7.872997975099
H            -0.080204640449     -1.135909280898      6.085474494439
