24
-0.530995229268266
C             0.697092438124      1.206228481101                   0
H             1.238751481843      2.142336379831      0.004928675883
C             1.394066202537                   0                   0
H             2.475325479251      0.000114333064      0.010977564436
C             0.696663336265       -1.2063436648     -0.001377484826
H             1.238021589736     -2.142768045099      0.001261014205
C             -0.69694068372     -1.206903024974     -0.000507818264
H            -1.237799125947      -2.14373787832      -0.00169760104
C            -1.394117326826      0.000170803848      0.001981006868
H            -2.475865900014      0.000265443726      0.001461018677
C             -0.69676396638      1.206847404824      -9.5703779e-05
H            -1.237425243665      2.143795338383     -0.000181194041
C             7.197092438124      2.633484002672       3.41255443799
H             7.738751481843      3.511451980936      3.737353636039
C             7.894066202537                 1.5                 3.0
H             8.975325479251      1.496352889775      3.010354640506
C             7.196663336265      0.366878887613      2.586111754539
H             7.738021589736     -0.513974612295      2.268315131845
C              5.80305931628      0.366055817503      2.586737661343
H             5.262200874053     -0.513874051406      2.265203240434
C             5.105882673174      1.499482958863      3.001919955892
H             4.024134099986      1.499749737693      3.001463695571
C              5.80323603362      2.634098333348      3.412676190235
H             5.262574756335      3.514570631966      3.733050922191
