24
-0.409264695606469
C             0.697092438124      1.206228481101                   0
H             1.238751481843      2.142336379831      0.004928675883
C             1.394066202537                   0                   0
H             2.475325479251      0.000114333064      0.010977564436
C             0.696663336265       -1.2063436648     -0.001377484826
H             1.238021589736     -2.142768045099      0.001261014205
C             -0.69694068372     -1.206903024974     -0.000507818264
H            -1.237799125947      -2.14373787832      -0.00169760104
C            -1.394117326826      0.000170803848      0.001981006868
H            -2.475865900014      0.000265443726      0.001461018677
C             -0.69676396638      1.206847404824      -9.5703779e-05
H            -1.237425243665      2.143795338383     -0.000181194041
C             7.000585519651      0.476492451542      4.309152251153
H             7.001622062336      0.841763574702      5.327136898247
C             8.207296745954      0.238399361199      3.654996861706
H             9.143637581134      0.413023916541      4.166870135592
C             8.206499979491     -0.236885881554      2.345133893248
H             9.143542169694     -0.424154698786      1.838331501612
C             6.999883175455     -0.476189105571      1.690196423779
H             6.999903451308     -0.845052050674      0.673275119118
C             5.792573577189     -0.240219049722      2.345795661764
H             4.855704512361     -0.424692289523      1.837439257157
C             5.793161002261      0.238402224106       3.65472490835
H              4.85646063451      0.423546263283      4.163154018529
