24
-2.79156816387623
C             0.697092438124      1.206228481101                   0
H             1.238751481843      2.142336379831      0.004928675883
C             1.394066202537                   0                   0
H             2.475325479251      0.000114333064      0.010977564436
C             0.696663336265       -1.2063436648     -0.001377484826
H             1.238021589736     -2.142768045099      0.001261014205
C             -0.69694068372     -1.206903024974     -0.000507818264
H            -1.237799125947      -2.14373787832      -0.00169760104
C            -1.394117326826      0.000170803848      0.001981006868
H            -2.475865900014      0.000265443726      0.001461018677
C             -0.69676396638      1.206847404824      -9.5703779e-05
H            -1.237425243665      2.143795338383     -0.000181194041
C             0.500585519651                 0.0      6.393170726464
H             0.501622062336     -0.004928675883      7.474693469307
C             1.707296745954                 0.0      5.697033101268
H             2.643637581134     -0.010977564436      6.237761754963
C             1.706499979491      0.001377484826      4.303607408721
H             2.643542169694     -0.001261014205      3.763319233395
C             0.499883175455      0.000507818264      3.606320978608
H             0.499903451308       0.00169760104      2.524568975346
C            -0.707426422811     -0.001981006868      4.303089257058
H            -1.644295487639     -0.001461018677      3.762296931003
C            -0.706838997739       9.5703779e-05      5.696778527879
H             -1.64353936549      0.000181194041      6.237868601722
