25
-0.0176946243010053
C             0.697092438124      1.206228481101                   0
H             1.238751481843      2.142336379831      0.004928675883
C             1.394066202537                   0                   0
H             2.475325479251      0.000114333064      0.010977564436
C             0.696663336265       -1.2063436648     -0.001377484826
H             1.238021589736     -2.142768045099      0.001261014205
C             -0.69694068372     -1.206903024974     -0.000507818264
H            -1.237799125947      -2.14373787832      -0.00169760104
C            -1.394117326826      0.000170803848      0.001981006868
H            -2.475865900014      0.000265443726      0.001461018677
C             -0.69676396638      1.206847404824      -9.5703779e-05
H            -1.237425243665      2.143795338383     -0.000181194041
C             7.538847238892              3.8118       4.56588920472
C              6.84111422619              3.8273      5.773398232838
C             6.485767816029               2.626      6.388076269525
C              6.82856422619              1.4096      5.795135470473
C             7.526983841433              1.3918      4.586637211871
C             7.876147238892               2.596      3.981668467327
H             7.818407046514              4.7432      4.082277414166
H              6.57519102111               4.775      6.233590734949
H             6.550800828731              0.4754      6.276435787356
H             7.786930251594               0.439      4.137196822226
O              8.55746422619               2.626      2.800592829267
H             8.717590316954               1.712      2.514646304447
H             5.941798200787              2.6382      7.329059280898
