28
-0.0238697521455812
C             0.697092438124      1.206228481101                   0
H             1.238751481843      2.142336379831      0.004928675883
C             1.394066202537                   0                   0
H             2.475325479251      0.000114333064      0.010977564436
C             0.696663336265       -1.2063436648     -0.001377484826
H             1.238021589736     -2.142768045099      0.001261014205
C             -0.69694068372     -1.206903024974     -0.000507818264
H            -1.237799125947      -2.14373787832      -0.00169760104
C            -1.394117326826      0.000170803848      0.001981006868
H            -2.475865900014      0.000265443726      0.001461018677
C             -0.69676396638      1.206847404824      -9.5703779e-05
H            -1.237425243665      2.143795338383     -0.000181194041
C             4.222944627815     -0.129158011573     10.396312344679
C             3.904930203156      1.103993007593      9.814976040859
C             3.681563994352      1.255853201729      8.446172506965
C             3.779452302668       0.12429852769      7.613817939215
C             4.096585391416     -1.116537984961      8.178911338833
C             4.314523480593     -1.238448740478      9.549809829449
H             4.393302065506     -0.227989485927      11.46315033805
H             3.611007025394      0.211528886951      6.544788788355
H             4.173040174749     -1.992500542045      7.539603596119
C             3.387169381301      2.628841132195      8.219565140135
C             3.436204396698      3.274822226914      9.433845538532
H             3.275881931771      4.311054958019      9.698835597449
N             3.749569608039      2.345246598773     10.390043034234
H             3.853397517986      2.535439812035     11.376912656446
H             4.559831140137     -2.211530908298      9.969208172722
H             3.163617425876      3.091263121919      7.267357854327
