25
-1.08258040934895
C             0.697092438124      1.206228481101                   0
H             1.238751481843      2.142336379831      0.004928675883
C             1.394066202537                   0                   0
H             2.475325479251      0.000114333064      0.010977564436
C             0.696663336265       -1.2063436648     -0.001377484826
H             1.238021589736     -2.142768045099      0.001261014205
C             -0.69694068372     -1.206903024974     -0.000507818264
H            -1.237799125947      -2.14373787832      -0.00169760104
C            -1.394117326826      0.000170803848      0.001981006868
H            -2.475865900014      0.000265443726      0.001461018677
C             -0.69676396638      1.206847404824      -9.5703779e-05
H            -1.237425243665      2.143795338383     -0.000181194041
C                     1.7496      3.324764826577       6.59698920472
C                     1.7491      2.640888220335      7.812498232838
C                     1.7487      1.245531902769      7.826726269525
C                     1.7491      0.534548601606      6.625385470473
C                     1.7497      1.217033349418      5.407687211871
C                     1.7496      2.609151140656      5.404868467327
H                     1.7499      4.410680887661      6.578927414166
H                     1.7489      3.195870495502      8.746640734949
H                     1.7492      -0.55234233061      6.639535787356
H                     1.7501      0.651484344692      4.481646822226
O                     1.7491      3.316881902769      4.239042829267
H                     1.7448       2.68918468371      3.498246304447
H                     1.7481      0.712647412695      8.774109280898
