25
-0.0858066474456418
C             0.697092438124      1.206228481101                   0
H             1.238751481843      2.142336379831      0.004928675883
C             1.394066202537                   0                   0
H             2.475325479251      0.000114333064      0.010977564436
C             0.696663336265       -1.2063436648     -0.001377484826
H             1.238021589736     -2.142768045099      0.001261014205
C             -0.69694068372     -1.206903024974     -0.000507818264
H            -1.237799125947      -2.14373787832      -0.00169760104
C            -1.394117326826      0.000170803848      0.001981006868
H            -2.475865900014      0.000265443726      0.001461018677
C             -0.69676396638      1.206847404824      -9.5703779e-05
H            -1.237425243665      2.143795338383     -0.000181194041
C              7.17040539764       3.21481079528      4.189829652181
C             6.554650883581      2.014801767162      4.544758336358
C             7.147986865238      0.799273730475      4.201733767413
C             8.357057264764      0.784214529527      3.504138526993
C             8.975106394065      1.984112788129      3.148000516142
C             8.374365766336      3.191131532673       3.49472280922
H             6.713886292917      4.164272585834      4.453747490344
H             5.613629632525      2.028359265051      5.087826268861
H             8.817132106322     -0.164135787356      3.238629663426
H             9.914726588887      1.957353177774      2.605972423941
O             8.942028585366      4.386957170733      3.166405177575
H             9.767276847777      4.213753695553      2.684982658809
H             6.667895359551     -0.135909280898      4.478221907134
