24
-1.63108301420821
C             0.697092438124      1.206228481101                   0
H             1.238751481843      2.142336379831      0.004928675883
C             1.394066202537                   0                   0
H             2.475325479251      0.000114333064      0.010977564436
C             0.696663336265       -1.2063436648     -0.001377484826
H             1.238021589736     -2.142768045099      0.001261014205
C             -0.69694068372     -1.206903024974     -0.000507818264
H            -1.237799125947      -2.14373787832      -0.00169760104
C            -1.394117326826      0.000170803848      0.001981006868
H            -2.475865900014      0.000265443726      0.001461018677
C             -0.69676396638      1.206847404824      -9.5703779e-05
H            -1.237425243665      2.143795338383     -0.000181194041
C             3.697092438124      2.206228481101                 4.0
H             4.238751481843      3.142336379831      4.004928675883
C             4.394066202537                 1.0                 4.0
H             5.475325479251      1.000114333064      4.010977564436
C             3.696663336265       -0.2063436648      3.998622515174
H             4.238021589736     -1.142768045099      4.001261014205
C              2.30305931628     -0.206903024974      3.999492181736
H             1.762200874053      -1.14373787832       3.99830239896
C             1.605882673174      1.000170803848      4.001981006868
H             0.524134099986      1.000265443726      4.001461018677
C              2.30323603362      2.206847404824      3.999904296221
H             1.762574756335      3.143795338383      3.999818805959
