24
-2.33451947369717
C             0.697092438124      1.206228481101                   0
H             1.238751481843      2.142336379831      0.004928675883
C             1.394066202537                   0                   0
H             2.475325479251      0.000114333064      0.010977564436
C             0.696663336265       -1.2063436648     -0.001377484826
H             1.238021589736     -2.142768045099      0.001261014205
C             -0.69694068372     -1.206903024974     -0.000507818264
H            -1.237799125947      -2.14373787832      -0.00169760104
C            -1.394117326826      0.000170803848      0.001981006868
H            -2.475865900014      0.000265443726      0.001461018677
C             -0.69676396638      1.206847404824      -9.5703779e-05
H            -1.237425243665      2.143795338383     -0.000181194041
C             2.500585519651      2.372005332691      3.741921557829
H             2.501622062336      3.436241459317      3.934579809451
C             3.707296745954      1.686443602235      3.621038527809
H             4.643637581134       2.21705113861      3.725745863701
C             3.706499979491      0.314426374698      3.377716137847
H             4.643542169694     -0.218111779773      3.286494495089
C             2.499883175455     -0.372417723761      3.257490074319
H             2.499903451308     -1.437528879799      3.068474102963
C             1.292573577189      0.313332898961      3.380933630414
H             0.355704512361     -0.219153281506      3.286513940096
C             1.293161002261      1.686209515174       3.62090007178
H              0.35646063451      2.219094060201      3.714775185584
