28
-0.597626707669499
C             0.697092438124      1.206228481101                   0
H             1.238751481843      2.142336379831      0.004928675883
C             1.394066202537                   0                   0
H             2.475325479251      0.000114333064      0.010977564436
C             0.696663336265       -1.2063436648     -0.001377484826
H             1.238021589736     -2.142768045099      0.001261014205
C             -0.69694068372     -1.206903024974     -0.000507818264
H            -1.237799125947      -2.14373787832      -0.00169760104
C            -1.394117326826      0.000170803848      0.001981006868
H            -2.475865900014      0.000265443726      0.001461018677
C             -0.69676396638      1.206847404824      -9.5703779e-05
H            -1.237425243665      2.143795338383     -0.000181194041
C             5.777055372185      0.603687655321      3.129158011573
C             6.095069796844      1.185023959141      1.896006992407
C             6.318436005648      2.553827493035      1.744146798271
C             6.220547697332      3.386182060785       2.87570147231
C             5.903414608584      2.821088661167      4.116537984961
C             5.685476519407      1.450190170551      4.238448740478
H             5.606697934494      -0.46315033805      3.227989485927
H             6.388992974606      4.455211211645      2.788471113049
H             5.826959825251      3.460396403881      4.992500542045
C             6.612830618699      2.780434859865      0.371158867805
C             6.563795603302      1.566154461468     -0.274822226914
H             6.724118068229      1.301164402551     -1.311054958019
N             6.250430391961      0.609956965766      0.654753401227
H             6.146602482014     -0.376912656446      0.464560187965
H             5.440168859863      1.030791827278      5.211530908298
H             6.836382574124      3.732642145673     -0.091263121919
