28
-0.153189065901441
C             0.697092438124      1.206228481101                   0
H             1.238751481843      2.142336379831      0.004928675883
C             1.394066202537                   0                   0
H             2.475325479251      0.000114333064      0.010977564436
C             0.696663336265       -1.2063436648     -0.001377484826
H             1.238021589736     -2.142768045099      0.001261014205
C             -0.69694068372     -1.206903024974     -0.000507818264
H            -1.237799125947      -2.14373787832      -0.00169760104
C            -1.394117326826      0.000170803848      0.001981006868
H            -2.475865900014      0.000265443726      0.001461018677
C             -0.69676396638      1.206847404824      -9.5703779e-05
H            -1.237425243665      2.143795338383     -0.000181194041
C             6.505080461014      2.870841988427      2.679285723983
C             6.489820879629      4.103993007593      3.341744943562
C             5.998859923853      4.255853201729      4.638846681107
C             5.497908878243       3.12429852769      5.310742727576
C             5.505810266816      1.883462015039      4.662790943622
C             6.002519590444      1.761551259522       3.36658898015
H             6.890965588936      2.772010514073      1.670198201155
H              5.10927219208      3.211528886951      6.320771768244
H             5.119944610852      1.007499457955      5.178220297982
C             6.140509454078      5.628841132195      4.982291723992
C             6.705184084268      6.274822226914      3.906176543964
H              6.97652244115      7.311054958019      3.756849653655
N             6.911900598435      5.345246598773       2.92140261598
H             7.315417801905      5.535439812035      2.014834497948
H             5.999776097173      0.788469091702      2.880725530799
H             5.858007483638      6.091263121919      5.918703400882
