25
-0.1397945725138
C             0.697092438124      1.206228481101                   0
H             1.238751481843      2.142336379831      0.004928675883
C             1.394066202537                   0                   0
H             2.475325479251      0.000114333064      0.010977564436
C             0.696663336265       -1.2063436648     -0.001377484826
H             1.238021589736     -2.142768045099      0.001261014205
C             -0.69694068372     -1.206903024974     -0.000507818264
H            -1.237799125947      -2.14373787832      -0.00169760104
C            -1.394117326826      0.000170803848      0.001981006868
H            -2.475865900014      0.000265443726      0.001461018677
C             -0.69676396638      1.206847404824      -9.5703779e-05
H            -1.237425243665      2.143795338383     -0.000181194041
C                     3.2504       1.40301079528      5.675235173423
C                     3.2509      0.187501767162      6.359111779665
C                     3.2513      0.173273730475      7.754468097231
C                     3.2509      1.374614529527      8.465451398394
C                     3.2503      2.592312788129      7.782966650582
C                     3.2504      2.595131532673      6.390848859344
H                     3.2501      1.421072585834      4.589319112339
H                     3.2511     -0.746640734949      5.804129504498
H                     3.2508      1.360464212644       9.55234233061
H                     3.2499      3.518353177774      8.348515655308
O                     3.2509      3.760957170733      5.683118097231
H                     3.2552      4.501753695553       6.31081531629
H                     3.2519     -0.774109280898      8.287352587305
