28
-0.219733006795504
C             0.697092438124      1.206228481101                   0
H             1.238751481843      2.142336379831      0.004928675883
C             1.394066202537                   0                   0
H             2.475325479251      0.000114333064      0.010977564436
C             0.696663336265       -1.2063436648     -0.001377484826
H             1.238021589736     -2.142768045099      0.001261014205
C             -0.69694068372     -1.206903024974     -0.000507818264
H            -1.237799125947      -2.14373787832      -0.00169760104
C            -1.394117326826      0.000170803848      0.001981006868
H            -2.475865900014      0.000265443726      0.001461018677
C             -0.69676396638      1.206847404824      -9.5703779e-05
H            -1.237425243665      2.143795338383     -0.000181194041
C             9.396312344679     -0.129158011573      2.777055372185
C             8.814976040859      1.103993007593      3.095069796844
C             7.446172506965      1.255853201729      3.318436005648
C             6.613817939215       0.12429852769      3.220547697332
C             7.178911338833     -1.116537984961      2.903414608584
C             8.549809829449     -1.238448740478      2.685476519407
H             10.46315033805     -0.227989485927      2.606697934494
H             5.544788788355      0.211528886951      3.388992974606
H             6.539603596119     -1.992500542045      2.826959825251
C             7.219565140135      2.628841132195      3.612830618699
C             8.433845538532      3.274822226914      3.563795603302
H             8.698835597449      4.311054958019      3.724118068229
N             9.390043034234      2.345246598773      3.250430391961
H            10.376912656446      2.535439812035      3.146602482014
H             8.969208172722     -2.211530908298      2.440168859863
H             6.267357854327      3.091263121919      3.836382574124
