28
-0.626755487178038
C             0.697092438124      1.206228481101                   0
H             1.238751481843      2.142336379831      0.004928675883
C             1.394066202537                   0                   0
H             2.475325479251      0.000114333064      0.010977564436
C             0.696663336265       -1.2063436648     -0.001377484826
H             1.238021589736     -2.142768045099      0.001261014205
C             -0.69694068372     -1.206903024974     -0.000507818264
H            -1.237799125947      -2.14373787832      -0.00169760104
C            -1.394117326826      0.000170803848      0.001981006868
H            -2.475865900014      0.000265443726      0.001461018677
C             -0.69676396638      1.206847404824      -9.5703779e-05
H            -1.237425243665      2.143795338383     -0.000181194041
C             4.620744233163      2.810010291464      5.897220487146
C             4.288773911472      1.451402030254       5.95825987269
C             4.650077368338      0.635485477361       7.03078823454
C             5.378159898897      1.199263286975      8.096087552938
C             5.718321718506      2.556405928683      8.050998929801
C             5.343922869623      3.347432985263      6.966644922886
H             4.331031568525      3.429019855634      5.054708557014
H              5.67337762083      0.589205004444       8.94431020117
H             6.280352515397      2.995357884525      8.871555258769
C             4.150001040262     -0.666860632927      6.753419852751
C             3.505172499426     -0.619156472119      5.538474027059
H              2.99252692784     -1.384065312031       4.97119078065
N             3.594902978989      0.663978384441      5.067161353967
H              3.20994520178      0.992701041234      4.192739105178
H             5.618031266696      4.399846034202       6.95079927431
H             4.253111719956       -1.5434334662      7.379116699635
