24
-0.783733577895692
C             0.697092438124      1.206228481101                   0
H             1.238751481843      2.142336379831      0.004928675883
C             1.394066202537                   0                   0
H             2.475325479251      0.000114333064      0.010977564436
C             0.696663336265       -1.2063436648     -0.001377484826
H             1.238021589736     -2.142768045099      0.001261014205
C             -0.69694068372     -1.206903024974     -0.000507818264
H            -1.237799125947      -2.14373787832      -0.00169760104
C            -1.394117326826      0.000170803848      0.001981006868
H            -2.475865900014      0.000265443726      0.001461018677
C             -0.69676396638      1.206847404824      -9.5703779e-05
H            -1.237425243665      2.143795338383     -0.000181194041
C             5.197092438124      3.044624507402      5.103114240551
H             5.738751481843      3.852853390444      5.575436548437
C             5.894066202537                 2.0                 4.5
H             6.975325479251       1.99461023312      4.509564016205
C             5.196663336265      0.955964483002      3.895635230747
H             5.738021589736      0.143677931424      3.429708047787
C              3.80305931628        0.9550452296      3.896108703996
H             3.262200874053       0.14431733884      3.426660895214
C             3.105882673174      1.999157417037      4.501801004197
H             2.024134099986      1.999499371671      4.501398001153
C              3.80323603362      3.045208362958      5.103340820508
H             3.262574756335      3.856671820575      5.571740750549
