28
-0.0228755268705995
C             0.697092438124      1.206228481101                   0
H             1.238751481843      2.142336379831      0.004928675883
C             1.394066202537                   0                   0
H             2.475325479251      0.000114333064      0.010977564436
C             0.696663336265       -1.2063436648     -0.001377484826
H             1.238021589736     -2.142768045099      0.001261014205
C             -0.69694068372     -1.206903024974     -0.000507818264
H            -1.237799125947      -2.14373787832      -0.00169760104
C            -1.394117326826      0.000170803848      0.001981006868
H            -2.475865900014      0.000265443726      0.001461018677
C             -0.69676396638      1.206847404824      -9.5703779e-05
H            -1.237425243665      2.143795338383     -0.000181194041
C             2.222944627815     -1.396312344679      8.870841988427
C             1.904930203156     -0.814976040859     10.103993007593
C             1.681563994352      0.553827493035     10.255853201729
C             1.779452302668      1.386182060785       9.12429852769
C             2.096585391416      0.821088661167      7.883462015039
C             2.314523480593     -0.549809829449      7.761551259522
H             2.393302065506      -2.46315033805      8.772010514073
H             1.611007025394      2.455211211645      9.211528886951
H             2.173040174749      1.460396403881      7.007499457955
C             1.387169381301      0.780434859865     11.628841132195
C             1.436204396698     -0.433845538532     12.274822226914
H             1.275881931771     -0.698835597449     13.311054958019
N             1.749569608039     -1.390043034234     11.345246598773
H             1.853397517986     -2.376912656446     11.535439812035
H             2.559831140137     -0.969208172722      6.788469091702
H             1.163617425876      1.732642145673     12.091263121919
