28
-1.08678365289145
C             0.697092438124      1.206228481101                   0
H             1.238751481843      2.142336379831      0.004928675883
C             1.394066202537                   0                   0
H             2.475325479251      0.000114333064      0.010977564436
C             0.696663336265       -1.2063436648     -0.001377484826
H             1.238021589736     -2.142768045099      0.001261014205
C             -0.69694068372     -1.206903024974     -0.000507818264
H            -1.237799125947      -2.14373787832      -0.00169760104
C            -1.394117326826      0.000170803848      0.001981006868
H            -2.475865900014      0.000265443726      0.001461018677
C             -0.69676396638      1.206847404824      -9.5703779e-05
H            -1.237425243665      2.143795338383     -0.000181194041
C             4.829986195273      2.586302053215      5.991689004164
C             3.994563866332      3.363574010605      5.180723933978
C             3.170448690056      2.810687029604      4.200046994987
C             3.177691019987       1.41455465224      4.016814461761
C             4.007238079176       0.62250541015       4.81936593805
C             4.820072149176      1.202376844186       5.79135966706
H             5.464182334617      3.034130482416      6.749434064089
H             2.547102339889      0.955583783911      3.261493383702
H             4.015612130041     -0.455754288406      4.680960652947
C              2.47412462562      3.886425773062      3.582767562954
C             2.880893757114      5.053002010651      4.189242334857
H             2.597736308299       6.08290090948      4.019444176824
N             3.798715558989      4.726064649793      5.152225905318
H             4.268411944839      5.384211615212      5.758108089847
H             5.457390165829       0.56936213852      6.404611533393
H             1.752599606136      3.810791320527      2.780153481125
