25
-0.963599871124436
C             0.697092438124      1.206228481101                   0
H             1.238751481843      2.142336379831      0.004928675883
C             1.394066202537                   0                   0
H             2.475325479251      0.000114333064      0.010977564436
C             0.696663336265       -1.2063436648     -0.001377484826
H             1.238021589736     -2.142768045099      0.001261014205
C             -0.69694068372     -1.206903024974     -0.000507818264
H            -1.237799125947      -2.14373787832      -0.00169760104
C            -1.394117326826      0.000170803848      0.001981006868
H            -2.475865900014      0.000265443726      0.001461018677
C             -0.69676396638      1.206847404824      -9.5703779e-05
H            -1.237425243665      2.143795338383     -0.000181194041
C            -0.324764826577       1.40301079528              4.7496
C             0.359111779665      0.187501767162              4.7491
C             1.754468097231      0.173273730475              4.7487
C             2.465451398394      1.374614529527              4.7491
C             1.782966650582      2.592312788129              4.7497
C             0.390848859344      2.595131532673              4.7496
H            -1.410680887661      1.421072585834              4.7499
H            -0.195870495502     -0.746640734949              4.7489
H              3.55234233061      1.360464212644              4.7492
H             2.348515655308      3.518353177774              4.7501
O            -0.316881902769      3.760957170733              4.7491
H              0.31081531629      4.501753695553              4.7448
H             2.287352587305     -0.774109280898              4.7481
