24
-0.283944998735858
C             0.697092438124      1.206228481101                   0
H             1.238751481843      2.142336379831      0.004928675883
C             1.394066202537                   0                   0
H             2.475325479251      0.000114333064      0.010977564436
C             0.696663336265       -1.2063436648     -0.001377484826
H             1.238021589736     -2.142768045099      0.001261014205
C             -0.69694068372     -1.206903024974     -0.000507818264
H            -1.237799125947      -2.14373787832      -0.00169760104
C            -1.394117326826      0.000170803848      0.001981006868
H            -2.475865900014      0.000265443726      0.001461018677
C             -0.69676396638      1.206847404824      -9.5703779e-05
H            -1.237425243665      2.143795338383     -0.000181194041
C             4.742498182121      3.185951829135      7.188103419607
H             4.931323430794      3.714139464845      8.112808592352
C             5.809993723411      2.738399361199      6.412919806088
H             6.826005982685      2.913852456891      6.738768611044
C             5.567243229395       2.05353326394      5.223941959603
H             6.396229586147      1.703850430427      4.623550523486
C             4.257875127965      1.814196973963      4.811138678392
H             4.070050831728      1.282566715815      3.887948494887
C             3.189899817115      2.259956545318      5.588194554203
H               2.1733562966      2.075461433477      5.267599670363
C             3.432489919993      2.947962026445      6.775701582106
H             2.603979440859      3.295799069023      7.378002032082
