25
-0.0170888271269328
C             0.697092438124      1.206228481101                   0
H             1.238751481843      2.142336379831      0.004928675883
C             1.394066202537                   0                   0
H             2.475325479251      0.000114333064      0.010977564436
C             0.696663336265       -1.2063436648     -0.001377484826
H             1.238021589736     -2.142768045099      0.001261014205
C             -0.69694068372     -1.206903024974     -0.000507818264
H            -1.237799125947      -2.14373787832      -0.00169760104
C            -1.394117326826      0.000170803848      0.001981006868
H            -2.475865900014      0.000265443726      0.001461018677
C             -0.69676396638      1.206847404824      -9.5703779e-05
H            -1.237425243665      2.143795338383     -0.000181194041
C              6.18371079528              3.8118      7.027447238892
C             4.975701767162              3.8273       7.72431422619
C             4.360623730475               2.626      8.078967816029
C             4.953964529527              1.4096       7.73686422619
C             6.163062788129              1.3918      7.039483841433
C             6.767931532673               2.596      6.690147238892
H             6.667622585834              4.7432      6.748407046514
H             4.515309265051               4.775       7.98989102111
H             4.472764212644              0.4754      8.014800828731
H             6.612903177774               0.439      6.780230251594
O             7.948507170733               2.626       6.00796422619
H             8.230153695553               1.712      5.840390316954
H             3.419040719102              2.6382      8.621898200787
