24
-0.646210399751104
C             0.697092438124      1.206228481101                   0
H             1.238751481843      2.142336379831      0.004928675883
C             1.394066202537                   0                   0
H             2.475325479251      0.000114333064      0.010977564436
C             0.696663336265       -1.2063436648     -0.001377484826
H             1.238021589736     -2.142768045099      0.001261014205
C             -0.69694068372     -1.206903024974     -0.000507818264
H            -1.237799125947      -2.14373787832      -0.00169760104
C            -1.394117326826      0.000170803848      0.001981006868
H            -2.475865900014      0.000265443726      0.001461018677
C             -0.69676396638      1.206847404824      -9.5703779e-05
H            -1.237425243665      2.143795338383     -0.000181194041
C             4.977042660038      2.227297128001      6.289066069686
H             5.347919255067      2.398860227303      7.290431868868
C             5.872887204471      2.042036239563      5.238399361199
H             6.937699869467      2.063848957717      5.425322707155
C             5.395558833826      1.816066611171      3.948929296958
H             6.091301026163      1.669654145229      3.133777451032
C              4.02322392219      1.773092197521      3.710217496243
H             3.653262000061      1.597746831828      2.708932825702
C             3.127032788156      1.956040517107      4.762101547747
H             2.061701972428      1.923950079173       4.57711313786
C              3.60425459132      2.185467306637      6.051286228166
H             2.909107872465      2.329476099034      6.867508355557
