28
-0.00814199202073138
C             0.697092438124      1.206228481101                   0
H             1.238751481843      2.142336379831      0.004928675883
C             1.394066202537                   0                   0
H             2.475325479251      0.000114333064      0.010977564436
C             0.696663336265       -1.2063436648     -0.001377484826
H             1.238021589736     -2.142768045099      0.001261014205
C             -0.69694068372     -1.206903024974     -0.000507818264
H            -1.237799125947      -2.14373787832      -0.00169760104
C            -1.394117326826      0.000170803848      0.001981006868
H            -2.475865900014      0.000265443726      0.001461018677
C             -0.69676396638      1.206847404824      -9.5703779e-05
H            -1.237425243665      2.143795338383     -0.000181194041
C             6.810010291464      4.144662956323      6.777055372185
C             5.451402030254      4.257786458656      7.095069796844
C             4.635485477361      3.148297922582      7.318436005648
C             5.199263286975      1.861680384935      7.220547697332
C             6.556405928683       1.73064736819      6.903414608584
C             7.347432985263      2.856924909314      6.685476519407
H             7.429019855634      5.019156023128      6.606697934494
H             4.589205004444      0.979489162535      7.388992974606
H             6.995357884525      0.739009343621      6.826959825251
C             3.333139367073      3.638544151455      7.612830618699
C             3.380843527881      5.013132371144      7.563795603302
H             2.615934687969      5.760736859469      7.724118068229
N             4.663978384441      5.376435879387      7.250430391961
H             4.992701041234      6.326186649076      7.146602482014
H             8.399846034202      2.733593444984      6.440168859863
H               2.4565665338      3.045119447139      7.836382574124
