28
-0.119470058019197
C             0.697092438124      1.206228481101                   0
H             1.238751481843      2.142336379831      0.004928675883
C             1.394066202537                   0                   0
H             2.475325479251      0.000114333064      0.010977564436
C             0.696663336265       -1.2063436648     -0.001377484826
H             1.238021589736     -2.142768045099      0.001261014205
C             -0.69694068372     -1.206903024974     -0.000507818264
H            -1.237799125947      -2.14373787832      -0.00169760104
C            -1.394117326826      0.000170803848      0.001981006868
H            -2.475865900014      0.000265443726      0.001461018677
C             -0.69676396638      1.206847404824      -9.5703779e-05
H            -1.237425243665      2.143795338383     -0.000181194041
C             5.679285723983      4.129158011573      5.505080461014
C             6.341744943562      2.896006992407      5.489820879629
C             7.638846681107      2.744146798271      4.998859923853
C             8.310742727576       3.87570147231      4.497908878243
C             7.662790943622      5.116537984961      4.505810266816
C              6.36658898015      5.238448740478      5.002519590444
H             4.670198201155      4.227989485927      5.890965588936
H             9.320771768244      3.788471113049       4.10927219208
H             8.178220297982      5.992500542045      4.119944610852
C             7.982291723992      1.371158867805      5.140509454078
C             6.906176543964      0.725177773086      5.705184084268
H             6.756849653655     -0.311054958019       5.97652244115
N              5.92140261598      1.654753401227      5.911900598435
H             5.014834497948      1.464560187965      6.315417801905
H             5.880725530799      6.211530908298      4.999776097173
H             8.918703400882      0.908736878081      4.858007483638
