28
-3.64763413943054
C             0.697092438124      1.206228481101                   0
H             1.238751481843      2.142336379831      0.004928675883
C             1.394066202537                   0                   0
H             2.475325479251      0.000114333064      0.010977564436
C             0.696663336265       -1.2063436648     -0.001377484826
H             1.238021589736     -2.142768045099      0.001261014205
C             -0.69694068372     -1.206903024974     -0.000507818264
H            -1.237799125947      -2.14373787832      -0.00169760104
C            -1.394117326826      0.000170803848      0.001981006868
H            -2.475865900014      0.000265443726      0.001461018677
C             -0.69676396638      1.206847404824      -9.5703779e-05
H            -1.237425243665      2.143795338383     -0.000181194041
C             1.899924684718      1.273820967896      5.380775213717
C             1.235880135498      0.153793451063      4.866645165297
C             1.318882814827     -1.107555279147      5.457142440669
C             2.101722765244     -1.262618142755      6.617284392354
C             2.772392697526     -0.152814646849      7.144652612678
C             2.671196902187      1.095373649792      6.533500175285
H             1.823544338881      2.247145509055      4.907765698646
H             2.185330310142     -2.232039724416       7.09898746256
H             3.377734331411     -0.268490114334      8.040225511837
C             0.526060229459      -1.99029698074      4.672722667524
C            -0.014762320327      -1.26168985577      3.637920502622
H            -0.668555097166      -1.55031809855       2.82616312537
N             0.420088593785      0.031189280614      3.764373956901
H             0.180932718712      0.790746837041      3.142488010451
H             3.200146919928      1.945124353282      6.959053161589
H             0.370275783262      -3.04614367478      4.850000002533
