28
-0.116798940470856
C             0.697092438124      1.206228481101                   0
H             1.238751481843      2.142336379831      0.004928675883
C             1.394066202537                   0                   0
H             2.475325479251      0.000114333064      0.010977564436
C             0.696663336265       -1.2063436648     -0.001377484826
H             1.238021589736     -2.142768045099      0.001261014205
C             -0.69694068372     -1.206903024974     -0.000507818264
H            -1.237799125947      -2.14373787832      -0.00169760104
C            -1.394117326826      0.000170803848      0.001981006868
H            -2.475865900014      0.000265443726      0.001461018677
C             -0.69676396638      1.206847404824      -9.5703779e-05
H            -1.237425243665      2.143795338383     -0.000181194041
C             6.380775213717      5.273820967896      4.100075315282
C             5.866645165297      4.153793451063      4.764119864502
C             6.457142440669      2.892444720853      4.681117185173
C             7.617284392354      2.737381857245      3.898277234756
C             8.144652612678      3.847185353151      3.227607302474
C             7.533500175285      5.095373649792      3.328803097813
H             5.907765698646      6.247145509055      4.176455661119
H              8.09898746256      1.767960275584      3.814669689858
H             9.040225511837      3.731509885666      2.622265668589
C             5.672722667524       2.00970301926      5.473939770541
C             4.637920502622       2.73831014423      6.014762320327
H              3.82616312537       2.44968190145      6.668555097166
N             4.764373956901      4.031189280614      5.579911406215
H             4.142488010451      4.790746837041      5.819067281288
H             7.959053161589      5.945124353282      2.799853080072
H             5.850000002533       0.95385632522      5.629724216738
