28
-0.0161281108063419
C             0.697092438124      1.206228481101                   0
H             1.238751481843      2.142336379831      0.004928675883
C             1.394066202537                   0                   0
H             2.475325479251      0.000114333064      0.010977564436
C             0.696663336265       -1.2063436648     -0.001377484826
H             1.238021589736     -2.142768045099      0.001261014205
C             -0.69694068372     -1.206903024974     -0.000507818264
H            -1.237799125947      -2.14373787832      -0.00169760104
C            -1.394117326826      0.000170803848      0.001981006868
H            -2.475865900014      0.000265443726      0.001461018677
C             -0.69676396638      1.206847404824      -9.5703779e-05
H            -1.237425243665      2.143795338383     -0.000181194041
C             4.777055372185      1.189989708536      5.855337043677
C             5.095069796844      2.548597969746      5.742213541344
C             5.318436005648      3.364514522639      6.851702077418
C             5.220547697332      2.800736713025      8.138319615065
C             4.903414608584      1.443594071317       8.26935263181
C             4.685476519407      0.652567014737      7.143075090686
H             4.606697934494      0.570980144366      4.980843976872
H             5.388992974606      3.410794995556      9.020510837465
H             4.826959825251      1.004642115475      9.260990656379
C             5.612830618699      4.666860632927      6.361455848545
C             5.563795603302      4.619156472119      4.986867628856
H             5.724118068229      5.384065312031      4.239263140531
N             5.250430391961      3.336021615559      4.623564120613
H             5.146602482014      3.007298958766      3.673813350924
H             4.440168859863     -0.399846034202      7.266406555016
H             5.836382574124        5.5434334662      6.954880552861
