24
-0.35152445496708
C             0.697092438124      1.206228481101                   0
H             1.238751481843      2.142336379831      0.004928675883
C             1.394066202537                   0                   0
H             2.475325479251      0.000114333064      0.010977564436
C             0.696663336265       -1.2063436648     -0.001377484826
H             1.238021589736     -2.142768045099      0.001261014205
C             -0.69694068372     -1.206903024974     -0.000507818264
H            -1.237799125947      -2.14373787832      -0.00169760104
C            -1.394117326826      0.000170803848      0.001981006868
H            -2.475865900014      0.000265443726      0.001461018677
C             -0.69676396638      1.206847404824      -9.5703779e-05
H            -1.237425243665      2.143795338383     -0.000181194041
C             4.697092438124       2.41255443799      7.633484002672
H             5.238751481843      2.728090755324        8.5148233938
C             5.394066202537                 2.0                 6.5
H             6.475325479251      1.989723567916      6.503861986098
C             4.696663336265      1.588700579191      5.365936632498
H             5.238021589736      1.265945200358      4.486887972224
C              3.30305931628      1.587692047494      5.365708449352
H             2.762200874053      1.268393686775      4.484964721092
C             2.605882673174      1.998196880821      6.500838047368
H             1.524134099986      1.998717878632      6.500749133328
C              3.30323603362      2.412856054505      7.634032868108
H             2.762574756335      2.733391455598      8.514446687942
