24
-0.157015113749488
C             0.697092438124      1.206228481101                   0
H             1.238751481843      2.142336379831      0.004928675883
C             1.394066202537                   0                   0
H             2.475325479251      0.000114333064      0.010977564436
C             0.696663336265       -1.2063436648     -0.001377484826
H             1.238021589736     -2.142768045099      0.001261014205
C             -0.69694068372     -1.206903024974     -0.000507818264
H            -1.237799125947      -2.14373787832      -0.00169760104
C            -1.394117326826      0.000170803848      0.001981006868
H            -2.475865900014      0.000265443726      0.001461018677
C             -0.69676396638      1.206847404824      -9.5703779e-05
H            -1.237425243665      2.143795338383     -0.000181194041
C             3.742498182121      1.789167744106      6.969218685831
H             3.931323430794      2.788171975019      7.338071477111
C             4.809993723411      0.948044241037      6.663074767372
H             5.826005982685      1.291900684476      6.799910357713
C             4.567243229395     -0.340853854961      6.192488336692
H             5.396229586147     -0.994650622526      5.957333606061
C             3.257875127965     -0.789540924335      6.030105078765
H             3.070050831728     -1.790208540724      5.664625711621
C             2.189899817115      0.051412607274      6.338835685057
H               1.1733562966     -0.295993266996      6.211836927738
C             2.432489919993      1.341770186879      6.806277446282
H             1.603979440859      1.995380087009      7.044081017915
