25
-0.0983432104842491
C             0.697092438124      1.206228481101                   0
H             1.238751481843      2.142336379831      0.004928675883
C             1.394066202537                   0                   0
H             2.475325479251      0.000114333064      0.010977564436
C             0.696663336265       -1.2063436648     -0.001377484826
H             1.238021589736     -2.142768045099      0.001261014205
C             -0.69694068372     -1.206903024974     -0.000507818264
H            -1.237799125947      -2.14373787832      -0.00169760104
C            -1.394117326826      0.000170803848      0.001981006868
H            -2.475865900014      0.000265443726      0.001461018677
C             -0.69676396638      1.206847404824      -9.5703779e-05
H            -1.237425243665      2.143795338383     -0.000181194041
C             6.792882413288      2.813364826577      4.675741841252
C             5.753394110168      3.524088220335      5.275313342609
C             4.700515951385      2.838731902769      5.882730950791
C             4.687674300803      1.442848601606      5.890606961427
C             5.727116674709      0.729533349418      5.291177447368
C             6.772375570328      1.423151140656      4.687581472556
H             7.615290443831      3.340680887661      4.201270753597
H             5.765035247751      4.610570495502      5.268361388584
H             3.866428834695       0.91165766939      6.364868722409
H             5.704142172346     -0.355215655308      5.304903662707
O             7.807740951385      0.767381902769      4.089235640824
H             7.655592341855      -0.18801531629      4.172113469178
H             3.890323706348      3.392747412695      6.349802841236
