28
-0.309511284171404
C             0.697092438124      1.206228481101                   0
H             1.238751481843      2.142336379831      0.004928675883
C             1.394066202537                   0                   0
H             2.475325479251      0.000114333064      0.010977564436
C             0.696663336265       -1.2063436648     -0.001377484826
H             1.238021589736     -2.142768045099      0.001261014205
C             -0.69694068372     -1.206903024974     -0.000507818264
H            -1.237799125947      -2.14373787832      -0.00169760104
C            -1.394117326826      0.000170803848      0.001981006868
H            -2.475865900014      0.000265443726      0.001461018677
C             -0.69676396638      1.206847404824      -9.5703779e-05
H            -1.237425243665      2.143795338383     -0.000181194041
C             3.891231883665      0.870841988427      8.097769648202
C              3.32515516123      2.103993007593      7.753324853282
C             2.447312583112      2.255853201729      6.679589324541
C             2.115909060972       1.12429852769      5.909804969756
C             2.673101072017     -0.116537984961      6.240623664962
C             3.547290239005     -0.238448740478      7.318887539257
H             4.572184749114      0.772010514073      8.936499733339
H             1.435516596275      1.211528886951      5.068221206362
H             2.419658985267     -0.992500542045      5.648739527269
C             2.079055686057      3.628841132195      6.630538894707
C             2.728661454264      4.274822226914      7.657619059338
H             2.722313156299      5.311054958019      7.967268414574
N             3.478142435799      3.345246598773      8.329027775981
H             4.061494854541      3.535439812035      9.131767984066
H             3.969432075549     -1.211530908298      7.559443329064
H             1.409350370689      4.091263121919      5.917679173242
