25
-0.0194843427264229
C             0.697092438124      1.206228481101                   0
H             1.238751481843      2.142336379831      0.004928675883
C             1.394066202537                   0                   0
H             2.475325479251      0.000114333064      0.010977564436
C             0.696663336265       -1.2063436648     -0.001377484826
H             1.238021589736     -2.142768045099      0.001261014205
C             -0.69694068372     -1.206903024974     -0.000507818264
H            -1.237799125947      -2.14373787832      -0.00169760104
C            -1.394117326826      0.000170803848      0.001981006868
H            -2.475865900014      0.000265443726      0.001461018677
C             -0.69676396638      1.206847404824      -9.5703779e-05
H            -1.237425243665      2.143795338383     -0.000181194041
C             0.689047238892             -1.5114      8.305735173423
C              0.69636422619             -0.1168      8.292061779665
C             0.095367816029              0.5932      9.332218097231
C             -0.51248577381             -0.0917     10.385851398394
C            -0.520866158567             -1.4875     10.401566650582
C             0.081147238892              -2.186      9.358648859344
H             1.155007046514               -2.07      7.499269112339
H              1.17004102111              0.4147      7.471229504498
H            -0.979499171269               0.464      11.19494233061
H            -0.996919748406             -2.0067     11.226915655308
O              0.09571422619             -3.5495      9.332418097231
H            -0.365009683046             -3.8772      10.12181531629
H             0.100948200787              1.6801      9.321352587305
