28
-0.0890587128318929
C             0.697092438124      1.206228481101                   0
H             1.238751481843      2.142336379831      0.004928675883
C             1.394066202537                   0                   0
H             2.475325479251      0.000114333064      0.010977564436
C             0.696663336265       -1.2063436648     -0.001377484826
H             1.238021589736     -2.142768045099      0.001261014205
C             -0.69694068372     -1.206903024974     -0.000507818264
H            -1.237799125947      -2.14373787832      -0.00169760104
C            -1.394117326826      0.000170803848      0.001981006868
H            -2.475865900014      0.000265443726      0.001461018677
C             -0.69676396638      1.206847404824      -9.5703779e-05
H            -1.237425243665      2.143795338383     -0.000181194041
C             5.380775213717      1.273820967896      6.100075315282
C             4.866645165297      0.153793451063      6.764119864502
C             5.457142440669     -1.107555279147      6.681117185173
C             6.617284392354     -1.262618142755      5.898277234756
C             7.144652612678     -0.152814646849      5.227607302474
C             6.533500175285      1.095373649792      5.328803097813
H             4.907765698646      2.247145509055      6.176455661119
H              7.09898746256     -2.232039724416      5.814669689858
H             8.040225511837     -0.268490114334      4.622265668589
C             4.672722667524      -1.99029698074      7.473939770541
C             3.637920502622      -1.26168985577      8.014762320327
H              2.82616312537      -1.55031809855      8.668555097166
N             3.764373956901      0.031189280614      7.579911406215
H             3.142488010451      0.790746837041      7.819067281288
H             6.959053161589      1.945124353282      4.799853080072
H             4.850000002533      -3.04614367478      7.629724216738
