28
-0.752033894022142
C             0.697092438124      1.206228481101                   0
H             1.238751481843      2.142336379831      0.004928675883
C             1.394066202537                   0                   0
H             2.475325479251      0.000114333064      0.010977564436
C             0.696663336265       -1.2063436648     -0.001377484826
H             1.238021589736     -2.142768045099      0.001261014205
C             -0.69694068372     -1.206903024974     -0.000507818264
H            -1.237799125947      -2.14373787832      -0.00169760104
C            -1.394117326826      0.000170803848      0.001981006868
H            -2.475865900014      0.000265443726      0.001461018677
C             -0.69676396638      1.206847404824      -9.5703779e-05
H            -1.237425243665      2.143795338383     -0.000181194041
C             5.870841988427      0.603687655321      2.777055372185
C             7.103993007593      1.185023959141      3.095069796844
C             7.255853201729      2.553827493035      3.318436005648
C              6.12429852769      3.386182060785      3.220547697332
C             4.883462015039      2.821088661167      2.903414608584
C             4.761551259522      1.450190170551      2.685476519407
H             5.772010514073      -0.46315033805      2.606697934494
H             6.211528886951      4.455211211645      3.388992974606
H             4.007499457955      3.460396403881      2.826959825251
C             8.628841132195      2.780434859865      3.612830618699
C             9.274822226914      1.566154461468      3.563795603302
H            10.311054958019      1.301164402551      3.724118068229
N             8.345246598773      0.609956965766      3.250430391961
H             8.535439812035     -0.376912656446      3.146602482014
H             3.788469091702      1.030791827278      2.440168859863
H             9.091263121919      3.732642145673      3.836382574124
