24
-1.15400480149193
C             0.697092438124      1.206228481101                   0
H             1.238751481843      2.142336379831      0.004928675883
C             1.394066202537                   0                   0
H             2.475325479251      0.000114333064      0.010977564436
C             0.696663336265       -1.2063436648     -0.001377484826
H             1.238021589736     -2.142768045099      0.001261014205
C             -0.69694068372     -1.206903024974     -0.000507818264
H            -1.237799125947      -2.14373787832      -0.00169760104
C            -1.394117326826      0.000170803848      0.001981006868
H            -2.475865900014      0.000265443726      0.001461018677
C             -0.69676396638      1.206847404824      -9.5703779e-05
H            -1.237425243665      2.143795338383     -0.000181194041
C             5.500585519651      2.872005332691      3.241921557829
H             5.501622062336      3.936241459317      3.434579809451
C             6.707296745954      2.186443602235      3.121038527809
H             7.643637581134       2.71705113861      3.225745863701
C             6.706499979491      0.814426374698      2.877716137847
H             7.643542169694      0.281888220227      2.786494495089
C             5.499883175455      0.127582276239      2.757490074319
H             5.499903451308     -0.937528879799      2.568474102963
C             4.292573577189      0.813332898961      2.880933630414
H             3.355704512361      0.280846718494      2.786513940096
C             4.293161002261      2.186209515174       3.12090007178
H              3.35646063451      2.719094060201      3.214775185584
