28
-0.0501671483184411
C             0.697092438124      1.206228481101                   0
H             1.238751481843      2.142336379831      0.004928675883
C             1.394066202537                   0                   0
H             2.475325479251      0.000114333064      0.010977564436
C             0.696663336265       -1.2063436648     -0.001377484826
H             1.238021589736     -2.142768045099      0.001261014205
C             -0.69694068372     -1.206903024974     -0.000507818264
H            -1.237799125947      -2.14373787832      -0.00169760104
C            -1.394117326826      0.000170803848      0.001981006868
H            -2.475865900014      0.000265443726      0.001461018677
C             -0.69676396638      1.206847404824      -9.5703779e-05
H            -1.237425243665      2.143795338383     -0.000181194041
C             3.211929434407      1.144662956323      6.187038196358
C             2.808033874326      1.257786458656      7.522634676687
C             2.593516409051      0.148297922582      8.340922243262
C             2.790631552123     -1.138319615065      7.803732183889
C             3.194557561741      -1.26935263181      6.469845635236
C             3.401331168351     -0.143075090686      5.675827064568
H             3.373900347728      2.019156023128      5.565781469756
H             2.631480300124     -2.020510837465      8.416280792987
H             3.347821755054     -2.260990656379       6.05147469877
C             2.197296567547      0.638544151455      9.615984365817
C             2.178683078942      2.013132371144      9.550153842993
H         1.9350719864100001      2.760736859469     10.292745562399
N             2.548868273538      2.376435879387       8.28224385506
H             2.623311994299      3.326186649076      7.945647728504
H             3.715095027913     -0.266406555016      4.641756799142
H             1.952611823374      0.045119447139     10.486894685411
