25
-0.0235637159753863
C             0.697092438124      1.206228481101                   0
H             1.238751481843      2.142336379831      0.004928675883
C             1.394066202537                   0                   0
H             2.475325479251      0.000114333064      0.010977564436
C             0.696663336265       -1.2063436648     -0.001377484826
H             1.238021589736     -2.142768045099      0.001261014205
C             -0.69694068372     -1.206903024974     -0.000507818264
H            -1.237799125947      -2.14373787832      -0.00169760104
C            -1.394117326826      0.000170803848      0.001981006868
H            -2.475865900014      0.000265443726      0.001461018677
C             -0.69676396638      1.206847404824      -9.5703779e-05
H            -1.237425243665      2.143795338383     -0.000181194041
C                     6.7496              5.8118              3.4886
C                     6.7491              5.8273              4.8832
C                     6.7487               4.626              5.5932
C                     6.7491              3.4096              4.9083
C                     6.7497              3.3918              3.5125
C                     6.7496               4.596               2.814
H                     6.7499              6.7432                2.93
H                     6.7489               6.775              5.4147
H                     6.7492              2.4754               5.464
H                     6.7501               2.439              2.9933
O                     6.7491               4.626              1.4505
H                     6.7448               3.712              1.1228
H                     6.7481              4.6382              6.6801
