28
-0.701592712546429
C             0.697092438124      1.206228481101                   0
H             1.238751481843      2.142336379831      0.004928675883
C             1.394066202537                   0                   0
H             2.475325479251      0.000114333064      0.010977564436
C             0.696663336265       -1.2063436648     -0.001377484826
H             1.238021589736     -2.142768045099      0.001261014205
C             -0.69694068372     -1.206903024974     -0.000507818264
H            -1.237799125947      -2.14373787832      -0.00169760104
C            -1.394117326826      0.000170803848      0.001981006868
H            -2.475865900014      0.000265443726      0.001461018677
C             -0.69676396638      1.206847404824      -9.5703779e-05
H            -1.237425243665      2.143795338383     -0.000181194041
C             1.409982824173     -1.144662956323      5.401919142943
C             2.427564879843     -1.257786458656      6.356631844073
C             3.022486237614     -0.148297922582       6.95803093169
C             2.583184486557      1.138319615065      6.591368265148
C             1.566431026652       1.26935263181      5.638151633058
C             0.990350545161      0.143075090686      5.053898183088
H             0.959083535262     -2.019156023128      4.944880492094
H             3.027287818381      2.020510837465      7.042275295681
H             1.224514873519      2.260990656379       5.35246387053
C             4.003153747118     -0.638544151455      7.864157200474
C             3.986358239691     -2.013132371144      7.797839551061
H              4.56862749417     -2.760736859469      8.319137298441
N             3.031813463099     -2.376435879387      6.884889889098
H              2.79904524649     -3.326186649076      6.630610953065
H             0.201587939279      0.266406555016      4.315248993711
H             4.650512111287     -0.045119447139      8.496045289574
