28
-0.0754491094081349
C             0.697092438124      1.206228481101                   0
H             1.238751481843      2.142336379831      0.004928675883
C             1.394066202537                   0                   0
H             2.475325479251      0.000114333064      0.010977564436
C             0.696663336265       -1.2063436648     -0.001377484826
H             1.238021589736     -2.142768045099      0.001261014205
C             -0.69694068372     -1.206903024974     -0.000507818264
H            -1.237799125947      -2.14373787832      -0.00169760104
C            -1.394117326826      0.000170803848      0.001981006868
H            -2.475865900014      0.000265443726      0.001461018677
C             -0.69676396638      1.206847404824      -9.5703779e-05
H            -1.237425243665      2.143795338383     -0.000181194041
C             7.777055372185      1.144662956323      2.189989708536
C             8.095069796844      1.257786458656      3.548597969746
C             8.318436005648      0.148297922582      4.364514522639
C             8.220547697332     -1.138319615065      3.800736713025
C             7.903414608584      -1.26935263181      2.443594071317
C             7.685476519407     -0.143075090686      1.652567014737
H             7.606697934494      2.019156023128      1.570980144366
H             8.388992974606     -2.020510837465      4.410794995556
H             7.826959825251     -2.260990656379      2.004642115475
C             8.612830618699      0.638544151455      5.666860632927
C             8.563795603302      2.013132371144      5.619156472119
H             8.724118068229      2.760736859469      6.384065312031
N             8.250430391961      2.376435879387      4.336021615559
H             8.146602482014      3.326186649076      4.007298958766
H             7.440168859863     -0.266406555016      0.600153965798
H             8.836382574124      0.045119447139        6.5434334662
