25
-2.07298539415216
C             0.697092438124      1.206228481101                   0
H             1.238751481843      2.142336379831      0.004928675883
C             1.394066202537                   0                   0
H             2.475325479251      0.000114333064      0.010977564436
C             0.696663336265       -1.2063436648     -0.001377484826
H             1.238021589736     -2.142768045099      0.001261014205
C             -0.69694068372     -1.206903024974     -0.000507818264
H            -1.237799125947      -2.14373787832      -0.00169760104
C            -1.394117326826      0.000170803848      0.001981006868
H            -2.475865900014      0.000265443726      0.001461018677
C             -0.69676396638      1.206847404824      -9.5703779e-05
H            -1.237425243665      2.143795338383     -0.000181194041
C              1.86149460236       1.40301079528      3.945529652181
C             2.453499116419      0.187501767162      3.603158336358
C             3.661713134762      0.173273730475      2.905133767414
C             4.277642735236      1.374614529527      2.549988526993
C             3.686893605935      2.592312788129      2.891750516142
C             2.481234233664      2.595131532673       3.58772280922
H             0.921213707083      1.421072585834      4.488747490344
H             1.972770367475     -0.746640734949      3.880476268861
H             5.218967893678      1.360464212644      2.006629663426
H             4.176873411113      3.518353177774      2.609322423941
O             1.868071414634      3.760957170733      3.941155177575
H             2.409523152223      4.501753695553      3.623582658809
H             4.122904640449     -0.774109280898      2.638171907134
