28
-0.777905148816793
C             0.697092438124      1.206228481101                   0
H             1.238751481843      2.142336379831      0.004928675883
C             1.394066202537                   0                   0
H             2.475325479251      0.000114333064      0.010977564436
C             0.696663336265       -1.2063436648     -0.001377484826
H             1.238021589736     -2.142768045099      0.001261014205
C             -0.69694068372     -1.206903024974     -0.000507818264
H            -1.237799125947      -2.14373787832      -0.00169760104
C            -1.394117326826      0.000170803848      0.001981006868
H            -2.475865900014      0.000265443726      0.001461018677
C             -0.69676396638      1.206847404824      -9.5703779e-05
H            -1.237425243665      2.143795338383     -0.000181194041
C             5.776673566968     -0.396312344679      2.871503294461
C             7.003620888598      0.185023959141      2.530336355403
C             7.246818778945      1.553827493035      2.647847069506
C             6.217919531299      2.386182060785      3.128850644791
C             4.984757045025      1.821088661167       3.47462358988
C             4.770210189165      0.450190170551      3.346839045959
H             5.605904280638      -1.46315033805      2.773385162874
H             6.377685877037      3.455211211645      3.231113354427
H              4.18792382616      2.460396403881      3.846393083815
C             8.583058512344      1.780434859865      2.216306317913
C             9.117977043036      0.566154461468      1.850850201545
H             10.09554214487      0.301164402551      1.471577163416
N             8.156258328657     -0.390043034234      2.044255781931
H             8.269056527996     -1.376912656446      1.859241567664
H             3.804842482091      0.030791827278      3.620937464961
H             9.095303680426      2.732642145673      2.178696995515
