28
-0.00855872079214379
C             0.697092438124      1.206228481101                   0
H             1.238751481843      2.142336379831      0.004928675883
C             1.394066202537                   0                   0
H             2.475325479251      0.000114333064      0.010977564436
C             0.696663336265       -1.2063436648     -0.001377484826
H             1.238021589736     -2.142768045099      0.001261014205
C             -0.69694068372     -1.206903024974     -0.000507818264
H            -1.237799125947      -2.14373787832      -0.00169760104
C            -1.394117326826      0.000170803848      0.001981006868
H            -2.475865900014      0.000265443726      0.001461018677
C             -0.69676396638      1.206847404824      -9.5703779e-05
H            -1.237425243665      2.143795338383     -0.000181194041
C             3.222944627815     -0.586302053215      7.726179032104
C             2.904930203156     -1.363574010605      8.846206548937
C             2.681563994352     -0.810687029604     10.107555279147
C             2.779452302668       0.58544534776     10.262618142755
C             3.096585391416       1.37749458985      9.152814646849
C             3.314523480593      0.797623155814      7.904626350208
H             3.393302065506     -1.034130482416      6.752854490945
H             2.611007025394      1.044416216089     11.232039724416
H             3.173040174749      2.455754288406      9.268490114334
C             2.387169381301     -1.886425773062      10.99029698074
C             2.436204396698     -3.053002010651      10.26168985577
H             2.275881931771      -4.08290090948      10.55031809855
N             2.749569608039     -2.726064649793      8.968810719386
H             2.853397517986     -3.384211615212      8.209253162959
H             3.559831140137       1.43063786148      7.054875646718
H             2.163617425876     -1.810791320527      12.04614367478
