25
-0.114913213185018
C             0.697092438124      1.206228481101                   0
H             1.238751481843      2.142336379831      0.004928675883
C             1.394066202537                   0                   0
H             2.475325479251      0.000114333064      0.010977564436
C             0.696663336265       -1.2063436648     -0.001377484826
H             1.238021589736     -2.142768045099      0.001261014205
C             -0.69694068372     -1.206903024974     -0.000507818264
H            -1.237799125947      -2.14373787832      -0.00169760104
C            -1.394117326826      0.000170803848      0.001981006868
H            -2.475865900014      0.000265443726      0.001461018677
C             -0.69676396638      1.206847404824      -9.5703779e-05
H            -1.237425243665      2.143795338383     -0.000181194041
C              5.43411079528              1.8118      7.538847238892
C             4.226601767162              1.8273       6.84111422619
C             3.611923730475               0.626      6.485767816029
C             4.204864529527             -0.5904       6.82856422619
C             5.413362788129             -0.6082      7.526983841433
C             6.018331532673               0.596      7.876147238892
H             5.917722585834              2.7432      7.818407046514
H             3.766409265051               2.775       6.57519102111
H             3.723564212644             -1.5246      6.550800828731
H             5.862803177774              -1.561      7.786930251594
O             7.199407170733               0.626       8.55746422619
H             7.485353695553              -0.288      8.717590316954
H             2.670940719102              0.6382      5.941798200787
