28
-0.524075562021646
C             0.697092438124      1.206228481101                   0
H             1.238751481843      2.142336379831      0.004928675883
C             1.394066202537                   0                   0
H             2.475325479251      0.000114333064      0.010977564436
C             0.696663336265       -1.2063436648     -0.001377484826
H             1.238021589736     -2.142768045099      0.001261014205
C             -0.69694068372     -1.206903024974     -0.000507818264
H            -1.237799125947      -2.14373787832      -0.00169760104
C            -1.394117326826      0.000170803848      0.001981006868
H            -2.475865900014      0.000265443726      0.001461018677
C             -0.69676396638      1.206847404824      -9.5703779e-05
H            -1.237425243665      2.143795338383     -0.000181194041
C             3.777055372185      0.810010291464      5.144662956323
C             4.095069796844     -0.548597969746      5.257786458656
C             4.318436005648     -1.364514522639      4.148297922582
C             4.220547697332     -0.800736713025      2.861680384935
C             3.903414608584      0.556405928683       2.73064736819
C             3.685476519407      1.347432985263      3.856924909314
H             3.606697934494      1.429019855634      6.019156023128
H             4.388992974606     -1.410794995556      1.979489162535
H             3.826959825251      0.995357884525      1.739009343621
C             4.612830618699     -2.666860632927      4.638544151455
C             4.563795603302     -2.619156472119      6.013132371144
H             4.724118068229     -3.384065312031      6.760736859469
N             4.250430391961     -1.336021615559      6.376435879387
H             4.146602482014     -1.007298958766      7.326186649076
H             3.440168859863      2.399846034202      3.733593444984
H             4.836382574124       -3.5434334662      4.045119447139
