24
-0.785712113787029
C             0.697092438124      1.206228481101                   0
H             1.238751481843      2.142336379831      0.004928675883
C             1.394066202537                   0                   0
H             2.475325479251      0.000114333064      0.010977564436
C             0.696663336265       -1.2063436648     -0.001377484826
H             1.238021589736     -2.142768045099      0.001261014205
C             -0.69694068372     -1.206903024974     -0.000507818264
H            -1.237799125947      -2.14373787832      -0.00169760104
C            -1.394117326826      0.000170803848      0.001981006868
H            -2.475865900014      0.000265443726      0.001461018677
C             -0.69676396638      1.206847404824      -9.5703779e-05
H            -1.237425243665      2.143795338383     -0.000181194041
C             6.000585519651      0.741921557829      4.872005332691
H             6.001622062336      0.924872213008      5.937953170487
C             7.207296745954      0.621038527809      4.186443602235
H             8.143637581134      0.704124282569       4.72086360673
C             7.206499979491       0.38042925332      2.813947979239
H             8.143542169694      0.284010781958      2.282326165865
C             5.999883175455      0.258490281046      2.127405912807
H             5.999903451308      0.071817724294      1.061881549547
C             4.792573577189      0.377031808569      2.814020895426
H             3.855704512361      0.283636295055      2.281354124956
C             4.793161002261      0.621088571427      4.186176277601
H              3.85646063451      0.715132068176      4.719031132171
