28
-0.0444062391644827
C             0.697092438124      1.206228481101                   0
H             1.238751481843      2.142336379831      0.004928675883
C             1.394066202537                   0                   0
H             2.475325479251      0.000114333064      0.010977564436
C             0.696663336265       -1.2063436648     -0.001377484826
H             1.238021589736     -2.142768045099      0.001261014205
C             -0.69694068372     -1.206903024974     -0.000507818264
H            -1.237799125947      -2.14373787832      -0.00169760104
C            -1.394117326826      0.000170803848      0.001981006868
H            -2.475865900014      0.000265443726      0.001461018677
C             -0.69676396638      1.206847404824      -9.5703779e-05
H            -1.237425243665      2.143795338383     -0.000181194041
C             7.211929434407      2.144662956323      3.187038196358
C             6.808033874326      2.257786458656      4.522634676687
C             6.593516409051      1.148297922582      5.340922243262
C             6.790631552123     -0.138319615065      4.803732183889
C             7.194557561741      -0.26935263181      3.469845635236
C             7.401331168351      0.856924909314      2.675827064568
H             7.373900347728      3.019156023128      2.565781469756
H             6.631480300124     -1.020510837465      5.416280792987
H             7.347821755054     -1.260990656379       3.05147469877
C             6.197296567547      1.638544151455      6.615984365817
C             6.178683078942      3.013132371144      6.550153842993
H              5.93507198641      3.760736859469      7.292745562399
N             6.548868273538      3.376435879387       5.28224385506
H             6.623311994299      4.326186649076      4.945647728504
H             7.715095027913      0.733593444984      1.641756799142
H             5.952611823374      1.045119447139      7.486894685411
