28
-0.140183565338301
C             0.697092438124      1.206228481101                   0
H             1.238751481843      2.142336379831      0.004928675883
C             1.394066202537                   0                   0
H             2.475325479251      0.000114333064      0.010977564436
C             0.696663336265       -1.2063436648     -0.001377484826
H             1.238021589736     -2.142768045099      0.001261014205
C             -0.69694068372     -1.206903024974     -0.000507818264
H            -1.237799125947      -2.14373787832      -0.00169760104
C            -1.394117326826      0.000170803848      0.001981006868
H            -2.475865900014      0.000265443726      0.001461018677
C             -0.69676396638      1.206847404824      -9.5703779e-05
H            -1.237425243665      2.143795338383     -0.000181194041
C             4.556165227377      1.413697946785      5.785366368021
C             4.840770415269      0.636425989395      6.914345862866
C             5.278003969203      1.189312970396      8.118389010661
C             5.440309162742       2.58544534776      8.203733235571
C             5.160052726025       3.37749458985      7.084048670534
C             4.724698499384      2.797623155814      5.894116852347
H             4.217036825562      0.965869517584      4.857263870405
H             5.779142064306      3.044416216089      9.127499590904
H             5.284102244375      4.455754288406      7.145999172304
C              5.46442160636      0.113574226938      9.030063055745
C             5.142583612883     -1.053002010651      8.374553268445
H             5.148054406849      -2.08290090948      8.704673891405
N             4.767526278375     -0.726064649793      7.098204486643
H             4.477665107797     -1.384211615212      6.388494392167
H             4.512265812547       3.43063786148       5.03555732647
H             5.798743280916      0.189208679473     10.056229092999
