28
-1.04101465241143
C             0.697092438124      1.206228481101                   0
H             1.238751481843      2.142336379831      0.004928675883
C             1.394066202537                   0                   0
H             2.475325479251      0.000114333064      0.010977564436
C             0.696663336265       -1.2063436648     -0.001377484826
H             1.238021589736     -2.142768045099      0.001261014205
C             -0.69694068372     -1.206903024974     -0.000507818264
H            -1.237799125947      -2.14373787832      -0.00169760104
C            -1.394117326826      0.000170803848      0.001981006868
H            -2.475865900014      0.000265443726      0.001461018677
C             -0.69676396638      1.206847404824      -9.5703779e-05
H            -1.237425243665      2.143795338383     -0.000181194041
C             4.810010291464      3.144662956323      3.777055372185
C             3.451402030254      3.257786458656      4.095069796844
C             2.635485477361      2.148297922582      4.318436005648
C             3.199263286975      0.861680384935      4.220547697332
C             4.556405928683       0.73064736819      3.903414608584
C             5.347432985263      1.856924909314      3.685476519407
H             5.429019855634      4.019156023128      3.606697934494
H             2.589205004444     -0.020510837465      4.388992974606
H             4.995357884525     -0.260990656379      3.826959825251
C             1.333139367073      2.638544151455      4.612830618699
C             1.380843527881      4.013132371144      4.563795603302
H             0.615934687969      4.760736859469      4.724118068229
N             2.663978384441      4.376435879387      4.250430391961
H             2.992701041234      5.326186649076      4.146602482014
H             6.399846034202      1.733593444984      3.440168859863
H               0.4565665338      2.045119447139      4.836382574124
