24
-1.51833765639661
C             0.697092438124      1.206228481101                   0
H             1.238751481843      2.142336379831      0.004928675883
C             1.394066202537                   0                   0
H             2.475325479251      0.000114333064      0.010977564436
C             0.696663336265       -1.2063436648     -0.001377484826
H             1.238021589736     -2.142768045099      0.001261014205
C             -0.69694068372     -1.206903024974     -0.000507818264
H            -1.237799125947      -2.14373787832      -0.00169760104
C            -1.394117326826      0.000170803848      0.001981006868
H            -2.475865900014      0.000265443726      0.001461018677
C             -0.69676396638      1.206847404824      -9.5703779e-05
H            -1.237425243665      2.143795338383     -0.000181194041
C             3.500585519651      2.241921557829      5.872005332691
H             3.501622062336      2.424872213008      6.937953170487
C             4.707296745954      2.121038527809      5.186443602235
H             5.643637581134      2.204124282569       5.72086360673
C             4.706499979491       1.88042925332      3.813947979239
H             5.643542169694      1.784010781958      3.282326165865
C             3.499883175455      1.758490281046      3.127405912807
H             3.499903451308      1.571817724294      2.061881549547
C             2.292573577189      1.877031808569      3.814020895426
H             1.355704512361      1.783636295055      3.281354124956
C             2.293161002261      2.121088571427      5.186176277601
H              1.35646063451      2.215132068176      5.719031132171
