24
-0.380039216956374
C             0.697092438124      1.206228481101                   0
H             1.238751481843      2.142336379831      0.004928675883
C             1.394066202537                   0                   0
H             2.475325479251      0.000114333064      0.010977564436
C             0.696663336265       -1.2063436648     -0.001377484826
H             1.238021589736     -2.142768045099      0.001261014205
C             -0.69694068372     -1.206903024974     -0.000507818264
H            -1.237799125947      -2.14373787832      -0.00169760104
C            -1.394117326826      0.000170803848      0.001981006868
H            -2.475865900014      0.000265443726      0.001461018677
C             -0.69676396638      1.206847404824      -9.5703779e-05
H            -1.237425243665      2.143795338383     -0.000181194041
C             5.242498182121      2.738228570193      6.351061359051
H             5.431323430794      2.918294798144       7.40065079715
C             6.309993723411      2.582795229258      5.469555078443
H             7.326005982685      2.636220353601      5.835761288887
C             6.067243229395      2.345885984904       4.11804336908
H             6.896229586147      2.222637571668      3.434261394141
C             4.757875127965      2.262170476731      3.648277339689
H             4.570050831728      2.078351085043      2.598934079579
C             3.689899817115      2.415278694561       4.53092976461
H               2.6733562966      2.351559907513      4.166568073409
C             3.932489919993      2.655641044353      5.882133089126
H             3.103979440859      2.776502060273      6.567077652621
