24
-0.643746548387993
C             0.697092438124      1.206228481101                   0
H             1.238751481843      2.142336379831      0.004928675883
C             1.394066202537                   0                   0
H             2.475325479251      0.000114333064      0.010977564436
C             0.696663336265       -1.2063436648     -0.001377484826
H             1.238021589736     -2.142768045099      0.001261014205
C             -0.69694068372     -1.206903024974     -0.000507818264
H            -1.237799125947      -2.14373787832      -0.00169760104
C            -1.394117326826      0.000170803848      0.001981006868
H            -2.475865900014      0.000265443726      0.001461018677
C             -0.69676396638      1.206847404824      -9.5703779e-05
H            -1.237425243665      2.143795338383     -0.000181194041
C             4.242498182121      2.469218685831      6.789167744106
H             4.431323430794      2.828808596396      7.791543387883
C             5.309993723411      2.163074767372      5.948044241037
H             6.326005982685      2.279279285124        6.2994097808
C             5.067243229395      1.695077161345      4.658203889923
H             5.896229586147      1.454963674575      4.006211961992
C             3.757875127965      1.531059464916      4.210111707514
H             3.570050831728      1.167816157962      3.208630231774
C             2.689899817115      1.835112609985       5.05276769578
H               1.6733562966      1.709091110799      4.705006128639
C             2.932489919993      2.306457310552      6.341704721638
H             2.103979440859      2.544421551321      6.995256142985
