24
-0.561910715176608
C             0.697092438124      1.206228481101                   0
H             1.238751481843      2.142336379831      0.004928675883
C             1.394066202537                   0                   0
H             2.475325479251      0.000114333064      0.010977564436
C             0.696663336265       -1.2063436648     -0.001377484826
H             1.238021589736     -2.142768045099      0.001261014205
C             -0.69694068372     -1.206903024974     -0.000507818264
H            -1.237799125947      -2.14373787832      -0.00169760104
C            -1.394117326826      0.000170803848      0.001981006868
H            -2.475865900014      0.000265443726      0.001461018677
C             -0.69676396638      1.206847404824      -9.5703779e-05
H            -1.237425243665      2.143795338383     -0.000181194041
C             5.242498182121      3.550939173913       5.38184267322
H             5.431323430794      4.363540993296      6.070130489583
C             6.309993723411      2.865249011779      4.806480311071
H             7.326005982685      3.141567846068      5.052669535645
C             6.067243229395      1.815031020492      3.923444603194
H             6.896229586147      1.281090677193      3.478859773929
C             4.757875127965       1.44894143751      3.617394238205
H             4.570050831728      0.633622768063      2.931707492272
C             3.689899817115      2.133587179374      4.195129158159
H               2.6733562966      1.850568576085      3.956969556149
C             3.932489919993      3.186252176933      5.075709016148
H             3.103979440859      3.719110965305      5.522719029329
