24
-0.888616247942163
C             0.697092438124      1.206228481101                   0
H             1.238751481843      2.142336379831      0.004928675883
C             1.394066202537                   0                   0
H             2.475325479251      0.000114333064      0.010977564436
C             0.696663336265       -1.2063436648     -0.001377484826
H             1.238021589736     -2.142768045099      0.001261014205
C             -0.69694068372     -1.206903024974     -0.000507818264
H            -1.237799125947      -2.14373787832      -0.00169760104
C            -1.394117326826      0.000170803848      0.001981006868
H            -2.475865900014      0.000265443726      0.001461018677
C             -0.69676396638      1.206847404824      -9.5703779e-05
H            -1.237425243665      2.143795338383     -0.000181194041
C             5.697092438124                 0.0      5.706228481101
H             6.238751481843     -0.004928675883      6.642336379831
C             6.394066202537                 0.0                 4.5
H             7.475325479251     -0.010977564436      4.500114333064
C             5.696663336265      0.001377484826        3.2936563352
H             6.238021589736     -0.001261014205      2.357231954901
C              4.30305931628      0.000507818264      3.293096975026
H             3.762200874053       0.00169760104       2.35626212168
C             3.605882673174     -0.001981006868      4.500170803848
H             2.524134099986     -0.001461018677      4.500265443726
C              4.30323603362       9.5703779e-05      5.706847404824
H             3.762574756335      0.000181194041      6.643795338383
