24
-0.421025343803813
C             0.697092438124      1.206228481101                   0
H             1.238751481843      2.142336379831      0.004928675883
C             1.394066202537                   0                   0
H             2.475325479251      0.000114333064      0.010977564436
C             0.696663336265       -1.2063436648     -0.001377484826
H             1.238021589736     -2.142768045099      0.001261014205
C             -0.69694068372     -1.206903024974     -0.000507818264
H            -1.237799125947      -2.14373787832      -0.00169760104
C            -1.394117326826      0.000170803848      0.001981006868
H            -2.475865900014      0.000265443726      0.001461018677
C             -0.69676396638      1.206847404824      -9.5703779e-05
H            -1.237425243665      2.143795338383     -0.000181194041
C             2.742498182121      2.371903658271                 5.5
H             2.931323430794      3.436815646733      5.504928675883
C             3.809993723411      1.476798722397                 5.5
H             4.826005982685      1.846718613128      5.510977564436
C             3.567243229395      0.104680654175      5.498622515174
H             4.396229586147     -0.590114998474      5.501261014205
C             2.257875127965     -0.372485619108      5.499492181736
H             2.070050831728     -1.437806899621       5.49830239896
C             1.189899817115      0.523344295182      5.501981006868
H               0.1733562966      0.153453425533      5.501461018677
C             1.432489919993      1.895758289082      5.499904296221
H             0.603979440859      2.591284300761      5.499818805959
