24
-1.35215564019333
C             0.697092438124      1.206228481101                   0
H             1.238751481843      2.142336379831      0.004928675883
C             1.394066202537                   0                   0
H             2.475325479251      0.000114333064      0.010977564436
C             0.696663336265       -1.2063436648     -0.001377484826
H             1.238021589736     -2.142768045099      0.001261014205
C             -0.69694068372     -1.206903024974     -0.000507818264
H            -1.237799125947      -2.14373787832      -0.00169760104
C            -1.394117326826      0.000170803848      0.001981006868
H            -2.475865900014      0.000265443726      0.001461018677
C             -0.69676396638      1.206847404824      -9.5703779e-05
H            -1.237425243665      2.143795338383     -0.000181194041
C             1.742498182121      1.789167744106      3.969218685831
H             1.931323430794      2.788171975019      4.338071477111
C             2.809993723411      0.948044241037      3.663074767372
H             3.826005982685      1.291900684476      3.799910357713
C             2.567243229395     -0.340853854961      3.192488336692
H             3.396229586147     -0.994650622526      2.957333606061
C             1.257875127965     -0.789540924335      3.030105078765
H             1.070050831728     -1.790208540724      2.664625711621
C             0.189899817115      0.051412607274      3.338835685057
H              -0.8266437034     -0.295993266996      3.211836927738
C             0.432489919993      1.341770186879      3.806277446282
H            -0.396020559141      1.995380087009      4.044081017915
