24
-0.71416391409362
C             0.697092438124      1.206228481101                   0
H             1.238751481843      2.142336379831      0.004928675883
C             1.394066202537                   0                   0
H             2.475325479251      0.000114333064      0.010977564436
C             0.696663336265       -1.2063436648     -0.001377484826
H             1.238021589736     -2.142768045099      0.001261014205
C             -0.69694068372     -1.206903024974     -0.000507818264
H            -1.237799125947      -2.14373787832      -0.00169760104
C            -1.394117326826      0.000170803848      0.001981006868
H            -2.475865900014      0.000265443726      0.001461018677
C             -0.69676396638      1.206847404824      -9.5703779e-05
H            -1.237425243665      2.143795338383     -0.000181194041
C             5.742498182121       2.38184267322      5.050939173913
H             5.931323430794      3.062579320038      5.869877176875
C             6.809993723411      1.806480311071      4.365249011779
H             7.826005982685      2.035850931174      4.655680330876
C             6.567243229395      0.925555032387      3.313260160135
H             7.396229586147       0.47692778808      2.782711805806
C             5.257875127965      0.618172260924      2.948288598934
H             5.070050831728     -0.065691632042      2.131440374233
C             4.189899817115      1.192094079553      3.636133912712
H               3.1733562966      0.954731145671      3.352446825491
C             4.432489919993      2.075855642844      4.686129142526
H             3.603979440859      2.522996634706      5.218878026736
