24
-0.300111199349455
C             0.697092438124      1.206228481101                   0
H             1.238751481843      2.142336379831      0.004928675883
C             1.394066202537                   0                   0
H             2.475325479251      0.000114333064      0.010977564436
C             0.696663336265       -1.2063436648     -0.001377484826
H             1.238021589736     -2.142768045099      0.001261014205
C             -0.69694068372     -1.206903024974     -0.000507818264
H            -1.237799125947      -2.14373787832      -0.00169760104
C            -1.394117326826      0.000170803848      0.001981006868
H            -2.475865900014      0.000265443726      0.001461018677
C             -0.69676396638      1.206847404824      -9.5703779e-05
H            -1.237425243665      2.143795338383     -0.000181194041
C             6.697092438124      2.775348722103      5.424024625079
H             7.238751481843      3.373291695964      6.144292970851
C             7.394066202537                 2.0                 4.5
H             8.475325479251      1.991664189642      4.507143826612
C             6.696663336265      1.225632453839      3.575001708909
H             7.238021589736      0.621689257254      2.859355010466
C              5.30305931628      1.224606700813      3.575132225047
H             4.762200874053      0.623332291244      2.856710313895
C             4.605882673174      1.998592251294      4.501404210008
H             3.524134099986      1.999051418699      4.501142466394
C              5.30323603362      2.775819871951      5.424437230955
H             4.762574756335      3.378143883905      6.142126036868
