24
-0.270387980523835
C             0.697092438124      1.206228481101                   0
H             1.238751481843      2.142336379831      0.004928675883
C             1.394066202537                   0                   0
H             2.475325479251      0.000114333064      0.010977564436
C             0.696663336265       -1.2063436648     -0.001377484826
H             1.238021589736     -2.142768045099      0.001261014205
C             -0.69694068372     -1.206903024974     -0.000507818264
H            -1.237799125947      -2.14373787832      -0.00169760104
C            -1.394117326826      0.000170803848      0.001981006868
H            -2.475865900014      0.000265443726      0.001461018677
C             -0.69676396638      1.206847404824      -9.5703779e-05
H            -1.237425243665      2.143795338383     -0.000181194041
C             4.500585519651      3.393170726464                 5.5
H             4.501622062336      4.474693469307      5.504928675883
C             5.707296745954      2.697033101269                 5.5
H             6.643637581134      3.237761754963      5.510977564436
C             5.706499979491      1.303607408721      5.498622515174
H             6.643542169694      0.763319233395      5.501261014205
C             4.499883175455      0.606320978608      5.499492181736
H             4.499903451308     -0.475431024654       5.49830239896
C             3.292573577189      1.303089257058      5.501981006868
H             2.355704512361      0.762296931003      5.501461018677
C             3.293161002261      2.696778527879      5.499904296221
H              2.35646063451      3.237868601722      5.499818805959
