24
-1.89566885825901
C             0.697092438124      1.206228481101                   0
H             1.238751481843      2.142336379831      0.004928675883
C             1.394066202537                   0                   0
H             2.475325479251      0.000114333064      0.010977564436
C             0.696663336265       -1.2063436648     -0.001377484826
H             1.238021589736     -2.142768045099      0.001261014205
C             -0.69694068372     -1.206903024974     -0.000507818264
H            -1.237799125947      -2.14373787832      -0.00169760104
C            -1.394117326826      0.000170803848      0.001981006868
H            -2.475865900014      0.000265443726      0.001461018677
C             -0.69676396638      1.206847404824      -9.5703779e-05
H            -1.237425243665      2.143795338383     -0.000181194041
C             2.500585519651      1.393170726464                 4.0
H             2.501622062336      2.474693469307      4.004928675883
C             3.707296745954      0.697033101268                 4.0
H             4.643637581134      1.237761754963      4.010977564436
C             3.706499979491     -0.696392591279      3.998622515174
H             4.643542169694     -1.236680766605      4.001261014205
C             2.499883175455     -1.393679021392      3.999492181736
H             2.499903451308     -2.475431024654       3.99830239896
C             1.292573577189     -0.696910742942      4.001981006868
H             0.355704512361     -1.237703068997      4.001461018677
C             1.293161002261      0.696778527879      3.999904296221
H              0.35646063451      1.237868601722      3.999818805959
