24
-0.978571294610185
C             0.697092438124      1.206228481101                   0
H             1.238751481843      2.142336379831      0.004928675883
C             1.394066202537                   0                   0
H             2.475325479251      0.000114333064      0.010977564436
C             0.696663336265       -1.2063436648     -0.001377484826
H             1.238021589736     -2.142768045099      0.001261014205
C             -0.69694068372     -1.206903024974     -0.000507818264
H            -1.237799125947      -2.14373787832      -0.00169760104
C            -1.394117326826      0.000170803848      0.001981006868
H            -2.475865900014      0.000265443726      0.001461018677
C             -0.69676396638      1.206847404824      -9.5703779e-05
H            -1.237425243665      2.143795338383     -0.000181194041
C             3.000585519651      2.196585363232      6.706521240926
H             3.001622062336      2.733078376132      7.645611748941
C             4.207296745954      1.848516550634      6.103648372977
H             5.143637581134      2.109374027808      6.577421905849
C             4.206499979491      1.152996641213      4.896217582532
H             5.143542169694      0.880567546361      4.429633546851
C             2.999883175455      0.803600272821      4.292784653621
H             2.999903451308      0.263754653299      3.355365046814
C             1.792573577189      1.149829026256      4.897448095876
H             0.855704512361      0.879883186212      4.428848209245
C             1.793161002261      1.848472145843      6.103380054065
H              0.85646063451      2.119091219503      6.571935058618
