24
-0.913951421781624
C             0.697092438124      1.206228481101                   0
H             1.238751481843      2.142336379831      0.004928675883
C             1.394066202537                   0                   0
H             2.475325479251      0.000114333064      0.010977564436
C             0.696663336265       -1.2063436648     -0.001377484826
H             1.238021589736     -2.142768045099      0.001261014205
C             -0.69694068372     -1.206903024974     -0.000507818264
H            -1.237799125947      -2.14373787832      -0.00169760104
C            -1.394117326826      0.000170803848      0.001981006868
H            -2.475865900014      0.000265443726      0.001461018677
C             -0.69676396638      1.206847404824      -9.5703779e-05
H            -1.237425243665      2.143795338383     -0.000181194041
C             2.742498182121      1.188103419607      5.685951829135
H             2.931323430794      2.107879916469      6.222676181888
C             3.809993723411      0.412919806088      5.238399361199
H             4.826005982685      0.727791046608      5.432866156237
C             3.567243229395     -0.774680555571      4.551147390235
H             4.396229586147     -1.377710490719      4.206034571099
C             2.257875127965     -1.188353503344      4.313317406929
H             2.070050831728     -2.110353904073      3.779626384563
C             1.189899817115     -0.413786452665      4.763387749864
H               0.1733562966     -0.733861348314      4.577991992056
C             1.432489919993      0.775797285885      5.447796262637
H             0.603979440859      1.378183226123      5.795485231738
