24
-0.349384398283677
C             0.697092438124      1.206228481101                   0
H             1.238751481843      2.142336379831      0.004928675883
C             1.394066202537                   0                   0
H             2.475325479251      0.000114333064      0.010977564436
C             0.696663336265       -1.2063436648     -0.001377484826
H             1.238021589736     -2.142768045099      0.001261014205
C             -0.69694068372     -1.206903024974     -0.000507818264
H            -1.237799125947      -2.14373787832      -0.00169760104
C            -1.394117326826      0.000170803848      0.001981006868
H            -2.475865900014      0.000265443726      0.001461018677
C             -0.69676396638      1.206847404824      -9.5703779e-05
H            -1.237425243665      2.143795338383     -0.000181194041
C             6.500585519651      3.809152251153      3.976492451542
H             6.501622062336      4.823765485383      4.351026455417
C             7.707296745954      3.154996861706      3.738399361199
H             8.643637581134      3.659361039268       3.93365498913
C             7.706499979491      1.846076148363      3.260525293794
H             8.643542169694      1.337468917094      3.078215232701
C             6.499883175455      1.190543791929      3.022856508278
H             6.499903451308       0.17443634662      2.651757502985
C             5.292573577189      1.844440573258       3.26350402535
H             4.355704512361      1.336439861522      3.078053527417
C             5.293161002261       3.15479037359      3.738222359836
H              4.35646063451  3.6632779625519998      3.923205729876
