24
-0.753439702420742
C             0.697092438124      1.206228481101                   0
H             1.238751481843      2.142336379831      0.004928675883
C             1.394066202537                   0                   0
H             2.475325479251      0.000114333064      0.010977564436
C             0.696663336265       -1.2063436648     -0.001377484826
H             1.238021589736     -2.142768045099      0.001261014205
C             -0.69694068372     -1.206903024974     -0.000507818264
H            -1.237799125947      -2.14373787832      -0.00169760104
C            -1.394117326826      0.000170803848      0.001981006868
H            -2.475865900014      0.000265443726      0.001461018677
C             -0.69676396638      1.206847404824      -9.5703779e-05
H            -1.237425243665      2.143795338383     -0.000181194041
C             4.197092438124      0.709459377593      7.187903160092
H             4.738751481843      0.867159010086      8.110645332003
C             4.894066202537                 0.5                 6.0
H             5.975325479251      0.489209063162      6.002018830147
C             4.196663336265      0.291877178704      4.811744208378
H             4.738021589736       0.12667037724      3.890004389098
C              2.80305931628      0.290923592456      4.811344362156
H             2.262200874053        0.1294156347      3.888535531678
C             2.105882673174      0.498078748855      6.000512207186
H             1.024134099986      0.498607271299       6.00051511427
C              2.80323603362      0.709661102393      7.188496062187
H             2.262574756335      0.872444595097      8.111194806096
