24
-0.106167306461635
C             0.697092438124      1.206228481101                   0
H             1.238751481843      2.142336379831      0.004928675883
C             1.394066202537                   0                   0
H             2.475325479251      0.000114333064      0.010977564436
C             0.696663336265       -1.2063436648     -0.001377484826
H             1.238021589736     -2.142768045099      0.001261014205
C             -0.69694068372     -1.206903024974     -0.000507818264
H            -1.237799125947      -2.14373787832      -0.00169760104
C            -1.394117326826      0.000170803848      0.001981006868
H            -2.475865900014      0.000265443726      0.001461018677
C             -0.69676396638      1.206847404824      -9.5703779e-05
H            -1.237425243665      2.143795338383     -0.000181194041
C             4.742498182121      1.871903658271                 6.5
H             4.931323430794      2.936815646733      6.504928675883
C             5.809993723411      0.976798722397                 6.5
H             6.826005982685      1.346718613128      6.510977564436
C             5.567243229395     -0.395319345825      6.498622515174
H             6.396229586147     -1.090114998474      6.501261014205
C             4.257875127965     -0.872485619108      6.499492181736
H             4.070050831728     -1.937806899621       6.49830239896
C             3.189899817115      0.023344295182      6.501981006868
H               2.1733562966     -0.346546574467      6.501461018677
C             3.432489919993      1.395758289082      6.499904296221
H             2.603979440859      2.091284300761      6.499818805959
