24
-1.30002602028661
C             0.697092438124      1.206228481101                   0
H             1.238751481843      2.142336379831      0.004928675883
C             1.394066202537                   0                   0
H             2.475325479251      0.000114333064      0.010977564436
C             0.696663336265       -1.2063436648     -0.001377484826
H             1.238021589736     -2.142768045099      0.001261014205
C             -0.69694068372     -1.206903024974     -0.000507818264
H            -1.237799125947      -2.14373787832      -0.00169760104
C            -1.394117326826      0.000170803848      0.001981006868
H            -2.475865900014      0.000265443726      0.001461018677
C             -0.69676396638      1.206847404824      -9.5703779e-05
H            -1.237425243665      2.143795338383     -0.000181194041
C             4.500585519651      2.567230693324      4.895512881149
H             4.501622062336      3.392557088795      5.594477884615
C             5.707296745954      2.033958333897      4.448044241037
H             6.643637581134      2.441124271891       4.80402722207
C             5.706499979491        0.9674177554      3.551312256252
H             6.643542169694      0.551837006523      3.206042919013
C             4.499883175455      0.432706349459       3.10377138181
H             4.499903451308     -0.395198983845      2.407523170876
C             3.292573577189       0.96486203135      3.553551948683
H             2.355704512361       0.55092531706      3.205539008017
C             3.293161002261       2.03382483657      4.447807291068
H              2.35646063451      2.448378832945      4.795547796919
