24
-0.425213840862415
C             0.697092438124      1.206228481101                   0
H             1.238751481843      2.142336379831      0.004928675883
C             1.394066202537                   0                   0
H             2.475325479251      0.000114333064      0.010977564436
C             0.696663336265       -1.2063436648     -0.001377484826
H             1.238021589736     -2.142768045099      0.001261014205
C             -0.69694068372     -1.206903024974     -0.000507818264
H            -1.237799125947      -2.14373787832      -0.00169760104
C            -1.394117326826      0.000170803848      0.001981006868
H            -2.475865900014      0.000265443726      0.001461018677
C             -0.69676396638      1.206847404824      -9.5703779e-05
H            -1.237425243665      2.143795338383     -0.000181194041
C             3.242498182121      2.351061359051      3.238228570193
H             3.431323430794      3.398939085979      3.428002394587
C             4.309993723411      1.469555078443      3.082795229258
H             5.326005982685      1.831948820768      3.157841934732
C             4.067243229395      0.118521764539      2.843172869431
H             4.896229586147     -0.566176551497        2.7251212848
C             2.757875127965     -0.351546296879      2.761170270004
H             2.570050831728     -1.400476349767      2.575007463711
C             1.689899817115      0.530241768145      2.919180516406
H               0.6733562966      0.166060666948      2.854437552554
C             1.932489919993        1.8821663267      3.155452544706
H             1.103979440859      2.567140580651      3.276145177681
