24
-0.896912105169049
C             0.697092438124      1.206228481101                   0
H             1.238751481843      2.142336379831      0.004928675883
C             1.394066202537                   0                   0
H             2.475325479251      0.000114333064      0.010977564436
C             0.696663336265       -1.2063436648     -0.001377484826
H             1.238021589736     -2.142768045099      0.001261014205
C             -0.69694068372     -1.206903024974     -0.000507818264
H            -1.237799125947      -2.14373787832      -0.00169760104
C            -1.394117326826      0.000170803848      0.001981006868
H            -2.475865900014      0.000265443726      0.001461018677
C             -0.69676396638      1.206847404824      -9.5703779e-05
H            -1.237425243665      2.143795338383     -0.000181194041
C             5.197092438124      2.424024625079      5.275348722103
H             5.738751481843      3.137956787271      5.880842865508
C             5.894066202537                 1.5                 4.5
H             6.975325479251      1.493031341804      4.508482794112
C             5.196663336265      0.576772569267      3.723522024646
H             5.738021589736     -0.142266118148      3.123621243103
C              3.80305931628      0.575785063623      3.723828678094
H             3.262200874053     -0.141107292276      3.120731415557
C             3.105882673174      1.498857476669        4.5016273299
H             2.024134099986      1.499264216988      4.501289829177
C              3.80323603362      2.424560265361      5.275673245255
H             3.262574756335      3.142358975437      5.877866278528
