24
-0.311845680391466
C             0.697092438124      1.206228481101                   0
H             1.238751481843      2.142336379831      0.004928675883
C             1.394066202537                   0                   0
H             2.475325479251      0.000114333064      0.010977564436
C             0.696663336265       -1.2063436648     -0.001377484826
H             1.238021589736     -2.142768045099      0.001261014205
C             -0.69694068372     -1.206903024974     -0.000507818264
H            -1.237799125947      -2.14373787832      -0.00169760104
C            -1.394117326826      0.000170803848      0.001981006868
H            -2.475865900014      0.000265443726      0.001461018677
C             -0.69676396638      1.206847404824      -9.5703779e-05
H            -1.237425243665      2.143795338383     -0.000181194041
C             7.242498182121                 1.0      4.871903658271
H             7.431323430794      0.995071324117      5.936815646733
C             8.309993723411                 1.0      3.976798722397
H             9.326005982685      0.989022435564      4.346718613128
C             8.067243229395      1.001377484826      2.604680654175
H             8.896229586147      0.998738985795      1.909885001526
C             6.757875127965      1.000507818264      2.127514380892
H             6.570050831728       1.00169760104      1.062193100379
C             5.689899817115      0.998018993132      3.023344295182
H               4.6733562966      0.998538981323      2.653453425533
C             5.932489919993      1.000095703779      4.395758289082
H             5.103979440859      1.000181194041      5.091284300761
