24
-0.470716400992301
C             0.697092438124      1.206228481101                   0
H             1.238751481843      2.142336379831      0.004928675883
C             1.394066202537                   0                   0
H             2.475325479251      0.000114333064      0.010977564436
C             0.696663336265       -1.2063436648     -0.001377484826
H             1.238021589736     -2.142768045099      0.001261014205
C             -0.69694068372     -1.206903024974     -0.000507818264
H            -1.237799125947      -2.14373787832      -0.00169760104
C            -1.394117326826      0.000170803848      0.001981006868
H            -2.475865900014      0.000265443726      0.001461018677
C             -0.69676396638      1.206847404824      -9.5703779e-05
H            -1.237425243665      2.143795338383     -0.000181194041
C             1.697092438124       0.41255443799      8.133484002672
H             2.238751481843      0.728090755324        9.0148233938
C             2.394066202537                 0.0                 7.0
H             3.475325479251     -0.010276432084      7.003861986098
C             1.696663336265     -0.411299420809      5.865936632498
H             2.238021589736     -0.734054799642      4.986887972224
C              0.30305931628     -0.412307952506      5.865708449352
H            -0.237799125947     -0.731606313225      4.984964721092
C            -0.394117326826     -0.001803119179      7.000838047368
H            -1.475865900014     -0.001282121368      7.000749133328
C              0.30323603362      0.412856054505      8.134032868108
H            -0.237425243665      0.733391455598      9.014446687942
