24
-1.54028528569121
C             0.697092438124      1.206228481101                   0
H             1.238751481843      2.142336379831      0.004928675883
C             1.394066202537                   0                   0
H             2.475325479251      0.000114333064      0.010977564436
C             0.696663336265       -1.2063436648     -0.001377484826
H             1.238021589736     -2.142768045099      0.001261014205
C             -0.69694068372     -1.206903024974     -0.000507818264
H            -1.237799125947      -2.14373787832      -0.00169760104
C            -1.394117326826      0.000170803848      0.001981006868
H            -2.475865900014      0.000265443726      0.001461018677
C             -0.69676396638      1.206847404824      -9.5703779e-05
H            -1.237425243665      2.143795338383     -0.000181194041
C             3.977042660038      2.289066069686      4.227297128001
H             4.347919255067      3.288720157697      4.408567823746
C             4.872887204471      1.238399361199      4.042036239563
H             5.937699869467      1.421510239036      4.085470538849
C             4.395558833826     -0.050592307583      3.813353495699
H             5.091301026163     -0.866660494605       3.67213785836
C              3.02322392219     -0.289606140325      3.772091990794
H             2.653262000061     -1.290477603644      3.594403210497
C             2.127032788156      0.761413551282      3.959942338952
H             1.061701972428      0.576605731399      3.926827724213
C              2.60425459132       2.05131946574       4.18527880699
H             1.909107872465      2.867571283587      4.329119216442
