24
-0.789453322438009
C             0.697092438124      1.206228481101                   0
H             1.238751481843      2.142336379831      0.004928675883
C             1.394066202537                   0                   0
H             2.475325479251      0.000114333064      0.010977564436
C             0.696663336265       -1.2063436648     -0.001377484826
H             1.238021589736     -2.142768045099      0.001261014205
C             -0.69694068372     -1.206903024974     -0.000507818264
H            -1.237799125947      -2.14373787832      -0.00169760104
C            -1.394117326826      0.000170803848      0.001981006868
H            -2.475865900014      0.000265443726      0.001461018677
C             -0.69676396638      1.206847404824      -9.5703779e-05
H            -1.237425243665      2.143795338383     -0.000181194041
C             5.697092438124                 2.0      5.206228481101
H             6.238751481843      1.995071324117      6.142336379831
C             6.394066202537                 2.0                 4.0
H             7.475325479251      1.989022435564      4.000114333064
C             5.696663336265      2.001377484826        2.7936563352
H             6.238021589736      1.998738985795      1.857231954901
C              4.30305931628      2.000507818264      2.793096975026
H             3.762200874053       2.00169760104       1.85626212168
C             3.605882673174      1.998018993132      4.000170803848
H             2.524134099986      1.998538981323      4.000265443726
C              4.30323603362      2.000095703779      5.206847404824
H             3.762574756335      2.000181194041      6.143795338383
