24
-0.50860501790511
C             0.697092438124      1.206228481101                   0
H             1.238751481843      2.142336379831      0.004928675883
C             1.394066202537                   0                   0
H             2.475325479251      0.000114333064      0.010977564436
C             0.696663336265       -1.2063436648     -0.001377484826
H             1.238021589736     -2.142768045099      0.001261014205
C             -0.69694068372     -1.206903024974     -0.000507818264
H            -1.237799125947      -2.14373787832      -0.00169760104
C            -1.394117326826      0.000170803848      0.001981006868
H            -2.475865900014      0.000265443726      0.001461018677
C             -0.69676396638      1.206847404824      -9.5703779e-05
H            -1.237425243665      2.143795338383     -0.000181194041
C             4.000585519651      3.067230693324      6.395512881149
H             4.001622062336      3.892557088795      7.094477884615
C             5.207296745954      2.533958333897      5.948044241037
H             6.143637581134      2.941124271891       6.30402722207
C             5.206499979491        1.4674177554      5.051312256252
H             6.143542169694      1.051837006523      4.706042919013
C             3.999883175455      0.932706349459       4.60377138181
H             3.999903451308      0.104801016155      3.907523170876
C             2.792573577189       1.46486203135      5.053551948683
H             1.855704512361       1.05092531706      4.705539008017
C             2.793161002261       2.53382483657      5.947807291068
H              1.85646063451      2.948378832945      6.295547796919
