24
-1.24338530093889
C             0.697092438124      1.206228481101                   0
H             1.238751481843      2.142336379831      0.004928675883
C             1.394066202537                   0                   0
H             2.475325479251      0.000114333064      0.010977564436
C             0.696663336265       -1.2063436648     -0.001377484826
H             1.238021589736     -2.142768045099      0.001261014205
C             -0.69694068372     -1.206903024974     -0.000507818264
H            -1.237799125947      -2.14373787832      -0.00169760104
C            -1.394117326826      0.000170803848      0.001981006868
H            -2.475865900014      0.000265443726      0.001461018677
C             -0.69676396638      1.206847404824      -9.5703779e-05
H            -1.237425243665      2.143795338383     -0.000181194041
C             4.977042660038      3.789066069686      3.727297128001
H             5.347919255067      4.788720157697      3.908567823746
C             5.872887204471      2.738399361199      3.542036239563
H             6.937699869467      2.921510239036      3.585470538849
C             5.395558833826      1.449407692417      3.313353495699
H             6.091301026163      0.633339505395       3.17213785836
C              4.02322392219      1.210393859675      3.272091990794
H             3.653262000061      0.209522396356      3.094403210497
C             3.127032788156      2.261413551282      3.459942338952
H             2.061701972428      2.076605731399      3.426827724213
C              3.60425459132       3.55131946574       3.68527880699
H             2.909107872465      4.367571283587      3.829119216442
