24
-0.925419211536763
C             0.697092438124      1.206228481101                   0
H             1.238751481843      2.142336379831      0.004928675883
C             1.394066202537                   0                   0
H             2.475325479251      0.000114333064      0.010977564436
C             0.696663336265       -1.2063436648     -0.001377484826
H             1.238021589736     -2.142768045099      0.001261014205
C             -0.69694068372     -1.206903024974     -0.000507818264
H            -1.237799125947      -2.14373787832      -0.00169760104
C            -1.394117326826      0.000170803848      0.001981006868
H            -2.475865900014      0.000265443726      0.001461018677
C             -0.69676396638      1.206847404824      -9.5703779e-05
H            -1.237425243665      2.143795338383     -0.000181194041
C             3.742498182121      1.738228570193      5.351061359051
H             3.931323430794      1.918294798144       6.40065079715
C             4.809993723411      1.582795229258      4.469555078443
H             5.826005982685      1.636220353601      4.835761288887
C             4.567243229395      1.345885984904       3.11804336908
H             5.396229586147      1.222637571668      2.434261394141
C             3.257875127965      1.262170476731      2.648277339689
H             3.070050831728      1.078351085043      1.598934079579
C             2.189899817115      1.415278694561       3.53092976461
H               1.1733562966      1.351559907513      3.166568073409
C             2.432489919993      1.655641044353      4.882133089126
H             1.603979440859      1.776502060273      5.567077652621
