24
-0.169316611912852
C             0.697092438124      1.206228481101                   0
H             1.238751481843      2.142336379831      0.004928675883
C             1.394066202537                   0                   0
H             2.475325479251      0.000114333064      0.010977564436
C             0.696663336265       -1.2063436648     -0.001377484826
H             1.238021589736     -2.142768045099      0.001261014205
C             -0.69694068372     -1.206903024974     -0.000507818264
H            -1.237799125947      -2.14373787832      -0.00169760104
C            -1.394117326826      0.000170803848      0.001981006868
H            -2.475865900014      0.000265443726      0.001461018677
C             -0.69676396638      1.206847404824      -9.5703779e-05
H            -1.237425243665      2.143795338383     -0.000181194041
C             1.500585519651      1.567230693324      7.895512881149
H             1.501622062336      2.392557088795      8.594477884615
C             2.707296745954      1.033958333897      7.448044241037
H             3.643637581134      1.441124271891       7.80402722207
C             2.706499979491       -0.0325822446      6.551312256252
H             3.643542169694     -0.448162993477      6.206042919013
C             1.499883175455     -0.567293650541       6.10377138181
H             1.499903451308     -1.395198983845      5.407523170876
C             0.292573577189      -0.03513796865      6.553551948683
H            -0.644295487639      -0.44907468294      6.205539008017
C             0.293161002261       1.03382483657      7.447807291068
H             -0.64353936549      1.448378832945      7.795547796919
