24
-0.381588724930093
C             0.697092438124      1.206228481101                   0
H             1.238751481843      2.142336379831      0.004928675883
C             1.394066202537                   0                   0
H             2.475325479251      0.000114333064      0.010977564436
C             0.696663336265       -1.2063436648     -0.001377484826
H             1.238021589736     -2.142768045099      0.001261014205
C             -0.69694068372     -1.206903024974     -0.000507818264
H            -1.237799125947      -2.14373787832      -0.00169760104
C            -1.394117326826      0.000170803848      0.001981006868
H            -2.475865900014      0.000265443726      0.001461018677
C             -0.69676396638      1.206847404824      -9.5703779e-05
H            -1.237425243665      2.143795338383     -0.000181194041
C             4.197092438124      1.103114240551      5.044624507402
H             4.738751481843      1.566899831394      5.857782066327
C             4.894066202537                 0.5                 4.0
H             5.975325479251      0.490550316859      4.005587797556
C             4.196663336265     -0.101978895547      2.954586998176
H             4.738021589736     -0.572476092886      2.144938945629
C              2.80305931628      -0.10301172897      2.954537411336
H             2.262200874053     -0.570398773534        2.1426197378
C             2.105882673174      0.498369799651      4.001138423905
H             1.024134099986      0.498867442573      4.000960390348
C              2.80323603362      1.103506584316      5.045112659179
H             2.262574756335      1.572054587834      5.856490626534
