24
-0.48157268320198
C             0.697092438124      1.206228481101                   0
H             1.238751481843      2.142336379831      0.004928675883
C             1.394066202537                   0                   0
H             2.475325479251      0.000114333064      0.010977564436
C             0.696663336265       -1.2063436648     -0.001377484826
H             1.238021589736     -2.142768045099      0.001261014205
C             -0.69694068372     -1.206903024974     -0.000507818264
H            -1.237799125947      -2.14373787832      -0.00169760104
C            -1.394117326826      0.000170803848      0.001981006868
H            -2.475865900014      0.000265443726      0.001461018677
C             -0.69676396638      1.206847404824      -9.5703779e-05
H            -1.237425243665      2.143795338383     -0.000181194041
C             6.742498182121      1.050939173913       4.38184267322
H             6.931323430794      1.863540993296      5.070130489583
C             7.809993723411      0.365249011779      3.806480311071
H             8.826005982685      0.641567846068      4.052669535645
C             7.567243229395     -0.684968979508      2.923444603194
H             8.396229586147     -1.218909322807      2.478859773929
C             6.257875127965      -1.05105856249      2.617394238205
H             6.070050831728     -1.866377231937      1.931707492272
C             5.189899817115     -0.366412820626      3.195129158159
H               4.1733562966     -0.649431423915      2.956969556149
C             5.432489919993      0.686252176933      4.075709016148
H             4.603979440859      1.219110965305      4.522719029329
