24
-1.03396157677827
C             0.697092438124      1.206228481101                   0
H             1.238751481843      2.142336379831      0.004928675883
C             1.394066202537                   0                   0
H             2.475325479251      0.000114333064      0.010977564436
C             0.696663336265       -1.2063436648     -0.001377484826
H             1.238021589736     -2.142768045099      0.001261014205
C             -0.69694068372     -1.206903024974     -0.000507818264
H            -1.237799125947      -2.14373787832      -0.00169760104
C            -1.394117326826      0.000170803848      0.001981006868
H            -2.475865900014      0.000265443726      0.001461018677
C             -0.69676396638      1.206847404824      -9.5703779e-05
H            -1.237425243665      2.143795338383     -0.000181194041
C             3.477042660038      2.154475995819      6.633585677093
H             3.847919255067      2.658179848389      7.515883693479
C             4.372887204471      1.621038527809      5.709644879838
H             5.437699869467      1.705467327673      5.877834979697
C             3.895558833826      0.967671799301      4.575225540436
H             4.591301026163      0.551290734289      3.859309378587
C              2.52322392219      0.845644815618      4.365607937926
H             2.153262000061      0.338414542859      3.484679768819
C             1.627032788156      1.377325535576      5.291483608561
H             0.561701972428      1.283900625387      5.128626941041
C              2.10425459132      2.033843325878      6.424452356144
H             1.409107872465      2.448331734417      7.142196358359
