24
-0.213397738649796
C             0.697092438124      1.206228481101                   0
H             1.238751481843      2.142336379831      0.004928675883
C             1.394066202537                   0                   0
H             2.475325479251      0.000114333064      0.010977564436
C             0.696663336265       -1.2063436648     -0.001377484826
H             1.238021589736     -2.142768045099      0.001261014205
C             -0.69694068372     -1.206903024974     -0.000507818264
H            -1.237799125947      -2.14373787832      -0.00169760104
C            -1.394117326826      0.000170803848      0.001981006868
H            -2.475865900014      0.000265443726      0.001461018677
C             -0.69676396638      1.206847404824      -9.5703779e-05
H            -1.237425243665      2.143795338383     -0.000181194041
C             2.242498182121      2.371903658271                 6.0
H             2.431323430794      3.436815646733      6.004928675883
C             3.309993723411      1.476798722397                 6.0
H             4.326005982685      1.846718613128      6.010977564436
C             3.067243229395      0.104680654175      5.998622515174
H             3.896229586147     -0.590114998474      6.001261014205
C             1.757875127965     -0.372485619108      5.999492181736
H             1.570050831728     -1.437806899621       5.99830239896
C             0.689899817115      0.523344295182      6.001981006868
H              -0.3266437034      0.153453425533      6.001461018677
C             0.932489919993      1.895758289082      5.999904296221
H             0.103979440859      2.591284300761      5.999818805959
