24
-0.990540589519362
C             0.697092438124      1.206228481101                   0
H             1.238751481843      2.142336379831      0.004928675883
C             1.394066202537                   0                   0
H             2.475325479251      0.000114333064      0.010977564436
C             0.696663336265       -1.2063436648     -0.001377484826
H             1.238021589736     -2.142768045099      0.001261014205
C             -0.69694068372     -1.206903024974     -0.000507818264
H            -1.237799125947      -2.14373787832      -0.00169760104
C            -1.394117326826      0.000170803848      0.001981006868
H            -2.475865900014      0.000265443726      0.001461018677
C             -0.69676396638      1.206847404824      -9.5703779e-05
H            -1.237425243665      2.143795338383     -0.000181194041
C             2.000585519651      1.476492451542      7.309152251153
H             2.001622062336      1.841763574702      8.327136898247
C             3.207296745954      1.238399361199      6.654996861706
H             4.143637581134      1.413023916541      7.166870135592
C             3.206499979491      0.763114118446      5.345133893248
H             4.143542169694      0.575845301214      4.838331501612
C             1.999883175455      0.523810894429      4.690196423779
H             1.999903451308      0.154947949326      3.673275119118
C             0.792573577189      0.759780950278      5.345795661764
H            -0.144295487639      0.575307710477      4.837439257157
C             0.793161002261      1.238402224106       6.65472490835
H             -0.14353936549      1.423546263283      7.163154018529
