24
-0.266795177751373
C             0.697092438124      1.206228481101                   0
H             1.238751481843      2.142336379831      0.004928675883
C             1.394066202537                   0                   0
H             2.475325479251      0.000114333064      0.010977564436
C             0.696663336265       -1.2063436648     -0.001377484826
H             1.238021589736     -2.142768045099      0.001261014205
C             -0.69694068372     -1.206903024974     -0.000507818264
H            -1.237799125947      -2.14373787832      -0.00169760104
C            -1.394117326826      0.000170803848      0.001981006868
H            -2.475865900014      0.000265443726      0.001461018677
C             -0.69676396638      1.206847404824      -9.5703779e-05
H            -1.237425243665      2.143795338383     -0.000181194041
C             3.742498182121      0.469218685831      8.289167744106
H             3.931323430794      0.828808596396      9.291543387883
C             4.809993723411      0.163074767372      7.448044241037
H             5.826005982685      0.279279285124        7.7994097808
C             4.567243229395     -0.304922838655      6.158203889923
H             5.396229586147     -0.545036325425      5.506211961992
C             3.257875127965     -0.468940535084      5.710111707514
H             3.070050831728     -0.832183842038      4.708630231774
C             2.189899817115     -0.164887390015       6.55276769578
H               1.1733562966     -0.290908889201      6.205006128639
C             2.432489919993      0.306457310552      7.841704721638
H             1.603979440859      0.544421551321      8.495256142985
