24
-0.292539361997564
C             0.697092438124      1.206228481101                   0
H             1.238751481843      2.142336379831      0.004928675883
C             1.394066202537                   0                   0
H             2.475325479251      0.000114333064      0.010977564436
C             0.696663336265       -1.2063436648     -0.001377484826
H             1.238021589736     -2.142768045099      0.001261014205
C             -0.69694068372     -1.206903024974     -0.000507818264
H            -1.237799125947      -2.14373787832      -0.00169760104
C            -1.394117326826      0.000170803848      0.001981006868
H            -2.475865900014      0.000265443726      0.001461018677
C             -0.69676396638      1.206847404824      -9.5703779e-05
H            -1.237425243665      2.143795338383     -0.000181194041
C             5.742498182121      2.238228570193      6.351061359051
H             5.931323430794      2.418294798144       7.40065079715
C             6.809993723411      2.082795229258      5.469555078443
H             7.826005982685      2.136220353601      5.835761288887
C             6.567243229395      1.845885984904       4.11804336908
H             7.396229586147      1.722637571668      3.434261394141
C             5.257875127965      1.762170476731      3.648277339689
H             5.070050831728      1.578351085043      2.598934079579
C             4.189899817115      1.915278694561       4.53092976461
H               3.1733562966      1.851559907513      4.166568073409
C             4.432489919993      2.155641044353      5.882133089126
H             3.603979440859      2.276502060273      6.567077652621
