24
-0.807759265983826
C             0.697092438124      1.206228481101                   0
H             1.238751481843      2.142336379831      0.004928675883
C             1.394066202537                   0                   0
H             2.475325479251      0.000114333064      0.010977564436
C             0.696663336265       -1.2063436648     -0.001377484826
H             1.238021589736     -2.142768045099      0.001261014205
C             -0.69694068372     -1.206903024974     -0.000507818264
H            -1.237799125947      -2.14373787832      -0.00169760104
C            -1.394117326826      0.000170803848      0.001981006868
H            -2.475865900014      0.000265443726      0.001461018677
C             -0.69676396638      1.206847404824      -9.5703779e-05
H            -1.237425243665      2.143795338383     -0.000181194041
C             5.500585519651      2.741921557829      4.372005332691
H             5.501622062336      2.924872213008      5.437953170487
C             6.707296745954      2.621038527809      3.686443602235
H             7.643637581134      2.704124282569       4.22086360673
C             6.706499979491       2.38042925332      2.313947979239
H             7.643542169694      2.284010781958      1.782326165865
C             5.499883175455      2.258490281046      1.627405912807
H             5.499903451308      2.071817724294      0.561881549547
C             4.292573577189      2.377031808569      2.314020895426
H             3.355704512361      2.283636295055      1.781354124956
C             4.293161002261      2.621088571427      3.686176277601
H              3.35646063451      2.715132068176      4.219031132171
