24
-0.481944796027411
C             0.697092438124      1.206228481101                   0
H             1.238751481843      2.142336379831      0.004928675883
C             1.394066202537                   0                   0
H             2.475325479251      0.000114333064      0.010977564436
C             0.696663336265       -1.2063436648     -0.001377484826
H             1.238021589736     -2.142768045099      0.001261014205
C             -0.69694068372     -1.206903024974     -0.000507818264
H            -1.237799125947      -2.14373787832      -0.00169760104
C            -1.394117326826      0.000170803848      0.001981006868
H            -2.475865900014      0.000265443726      0.001461018677
C             -0.69676396638      1.206847404824      -9.5703779e-05
H            -1.237425243665      2.143795338383     -0.000181194041
C             6.742498182121       0.88184267322      4.550939173913
H             6.931323430794      1.562579320038      5.369877176875
C             7.809993723411      0.306480311071      3.865249011779
H             8.826005982685      0.535850931174      4.155680330876
C             7.567243229395     -0.574444967613      2.813260160135
H             8.396229586147      -1.02307221192      2.282711805806
C             6.257875127965     -0.881827739076      2.448288598934
H             6.070050831728     -1.565691632042      1.631440374233
C             5.189899817115     -0.307905920447      3.136133912712
H               4.1733562966     -0.545268854329      2.852446825491
C             5.432489919993      0.575855642844      4.186129142526
H             4.603979440859      1.022996634706      4.718878026736
