24
-0.342892943187335
C             0.697092438124      1.206228481101                   0
H             1.238751481843      2.142336379831      0.004928675883
C             1.394066202537                   0                   0
H             2.475325479251      0.000114333064      0.010977564436
C             0.696663336265       -1.2063436648     -0.001377484826
H             1.238021589736     -2.142768045099      0.001261014205
C             -0.69694068372     -1.206903024974     -0.000507818264
H            -1.237799125947      -2.14373787832      -0.00169760104
C            -1.394117326826      0.000170803848      0.001981006868
H            -2.475865900014      0.000265443726      0.001461018677
C             -0.69676396638      1.206847404824      -9.5703779e-05
H            -1.237425243665      2.143795338383     -0.000181194041
C             4.742498182121      3.188103419607      6.185951829135
H             4.931323430794      4.107879916469      6.722676181888
C             5.809993723411      2.412919806088      5.738399361199
H             6.826005982685      2.727791046608      5.932866156237
C             5.567243229395      1.225319444429      5.051147390235
H             6.396229586147      0.622289509281      4.706034571099
C             4.257875127965      0.811646496656      4.813317406929
H             4.070050831728     -0.110353904073      4.279626384563
C             3.189899817115      1.586213547335      5.263387749864
H               2.1733562966      1.266138651686      5.077991992056
C             3.432489919993      2.775797285885      5.947796262637
H             2.603979440859      3.378183226123      6.295485231738
