24
-0.34956775642196
C             0.697092438124      1.206228481101                   0
H             1.238751481843      2.142336379831      0.004928675883
C             1.394066202537                   0                   0
H             2.475325479251      0.000114333064      0.010977564436
C             0.696663336265       -1.2063436648     -0.001377484826
H             1.238021589736     -2.142768045099      0.001261014205
C             -0.69694068372     -1.206903024974     -0.000507818264
H            -1.237799125947      -2.14373787832      -0.00169760104
C            -1.394117326826      0.000170803848      0.001981006868
H            -2.475865900014      0.000265443726      0.001461018677
C             -0.69676396638      1.206847404824      -9.5703779e-05
H            -1.237425243665      2.143795338383     -0.000181194041
C             7.242498182121      2.789167744106      3.469218685831
H             7.431323430794      3.788171975019      3.838071477111
C             8.309993723411      1.948044241037      3.163074767372
H             9.326005982685      2.291900684476      3.299910357713
C             8.067243229395      0.659146145039      2.692488336692
H             8.896229586147      0.005349377474      2.457333606061
C             6.757875127965      0.210459075665      2.530105078765
H             6.570050831728     -0.790208540724      2.164625711621
C             5.689899817115      1.051412607274      2.838835685057
H               4.6733562966      0.704006733004      2.711836927738
C             5.932489919993      2.341770186879      3.306277446282
H             5.103979440859      2.995380087009      3.544081017915
