24
-0.331680361375875
C             0.697092438124      1.206228481101                   0
H             1.238751481843      2.142336379831      0.004928675883
C             1.394066202537                   0                   0
H             2.475325479251      0.000114333064      0.010977564436
C             0.696663336265       -1.2063436648     -0.001377484826
H             1.238021589736     -2.142768045099      0.001261014205
C             -0.69694068372     -1.206903024974     -0.000507818264
H            -1.237799125947      -2.14373787832      -0.00169760104
C            -1.394117326826      0.000170803848      0.001981006868
H            -2.475865900014      0.000265443726      0.001461018677
C             -0.69676396638      1.206847404824      -9.5703779e-05
H            -1.237425243665      2.143795338383     -0.000181194041
C             5.242498182121       2.38184267322      6.550939173913
H             5.431323430794      3.062579320038      7.369877176875
C             6.309993723411      1.806480311071      5.865249011779
H             7.326005982685      2.035850931174      6.155680330876
C             6.067243229395      0.925555032387      4.813260160135
H             6.896229586147       0.47692778808      4.282711805806
C             4.757875127965      0.618172260924      4.448288598934
H             4.570050831728     -0.065691632042      3.631440374233
C             3.689899817115      1.192094079553      5.136133912712
H               2.6733562966      0.954731145671      4.852446825491
C             3.932489919993      2.075855642844      6.186129142526
H             3.103979440859      2.522996634706      6.718878026736
