24
-0.858792815933213
C             0.697092438124      1.206228481101                   0
H             1.238751481843      2.142336379831      0.004928675883
C             1.394066202537                   0                   0
H             2.475325479251      0.000114333064      0.010977564436
C             0.696663336265       -1.2063436648     -0.001377484826
H             1.238021589736     -2.142768045099      0.001261014205
C             -0.69694068372     -1.206903024974     -0.000507818264
H            -1.237799125947      -2.14373787832      -0.00169760104
C            -1.394117326826      0.000170803848      0.001981006868
H            -2.475865900014      0.000265443726      0.001461018677
C             -0.69676396638      1.206847404824      -9.5703779e-05
H            -1.237425243665      2.143795338383     -0.000181194041
C             3.197092438124      1.633484002672       5.41255443799
H             3.738751481843      2.511451980936      5.737353636039
C             3.894066202537                 0.5                 5.0
H             4.975325479251      0.496352889775      5.010354640506
C             3.196663336265     -0.633121112387      4.586111754539
H             3.738021589736     -1.513974612295      4.268315131845
C              1.80305931628     -0.633944182497      4.586737661343
H             1.262200874053     -1.513874051406      4.265203240434
C             1.105882673174      0.499482958863      5.001919955892
H             0.024134099986      0.499749737693      5.001463695571
C              1.80323603362      1.634098333348      5.412676190235
H             1.262574756335      2.514570631966      5.733050922191
