24
-0.769746339540094
C             0.697092438124      1.206228481101                   0
H             1.238751481843      2.142336379831      0.004928675883
C             1.394066202537                   0                   0
H             2.475325479251      0.000114333064      0.010977564436
C             0.696663336265       -1.2063436648     -0.001377484826
H             1.238021589736     -2.142768045099      0.001261014205
C             -0.69694068372     -1.206903024974     -0.000507818264
H            -1.237799125947      -2.14373787832      -0.00169760104
C            -1.394117326826      0.000170803848      0.001981006868
H            -2.475865900014      0.000265443726      0.001461018677
C             -0.69676396638      1.206847404824      -9.5703779e-05
H            -1.237425243665      2.143795338383     -0.000181194041
C             4.477042660038      2.502715399504      5.841378121899
H             4.847919255067      3.277805886846      6.498190193382
C             5.372887204471      1.685441783262       5.15560413194
H             6.437699869467      1.822303305536      5.284774777437
C             4.895558833826      0.683483624763      4.313063231956
H             5.591301026163      0.047355662251      3.782732809098
C              3.52322392219      0.497122326205      4.157822804139
H             3.153262000061     -0.280813396803      3.503504074775
C             2.627032788156      1.313406904936      4.846015823557
H             1.561701972428      1.169915945468      4.724933816015
C              3.10425459132      2.317829961329      5.686115886506
H             2.409107872465      2.952804566744      6.218811244105
