24
-0.405965190549269
C             0.697092438124      1.206228481101                   0
H             1.238751481843      2.142336379831      0.004928675883
C             1.394066202537                   0                   0
H             2.475325479251      0.000114333064      0.010977564436
C             0.696663336265       -1.2063436648     -0.001377484826
H             1.238021589736     -2.142768045099      0.001261014205
C             -0.69694068372     -1.206903024974     -0.000507818264
H            -1.237799125947      -2.14373787832      -0.00169760104
C            -1.394117326826      0.000170803848      0.001981006868
H            -2.475865900014      0.000265443726      0.001461018677
C             -0.69676396638      1.206847404824      -9.5703779e-05
H            -1.237425243665      2.143795338383     -0.000181194041
C             6.000585519651      2.067230693324      5.395512881149
H             6.001622062336      2.892557088795      6.094477884615
C             7.207296745954      1.533958333897      4.948044241037
H             8.143637581134      1.941124271891       5.30402722207
C             7.206499979491        0.4674177554      4.051312256252
H             8.143542169694      0.051837006523      3.706042919013
C             5.999883175455     -0.067293650541       3.60377138181
H             5.999903451308     -0.895198983845      2.907523170876
C             4.792573577189       0.46486203135      4.053551948683
H             3.855704512361       0.05092531706      3.705539008017
C             4.793161002261       1.53382483657      4.947807291068
H              3.85646063451      1.948378832945      5.295547796919
