24
-0.306605540985206
C             0.697092438124      1.206228481101                   0
H             1.238751481843      2.142336379831      0.004928675883
C             1.394066202537                   0                   0
H             2.475325479251      0.000114333064      0.010977564436
C             0.696663336265       -1.2063436648     -0.001377484826
H             1.238021589736     -2.142768045099      0.001261014205
C             -0.69694068372     -1.206903024974     -0.000507818264
H            -1.237799125947      -2.14373787832      -0.00169760104
C            -1.394117326826      0.000170803848      0.001981006868
H            -2.475865900014      0.000265443726      0.001461018677
C             -0.69676396638      1.206847404824      -9.5703779e-05
H            -1.237425243665      2.143795338383     -0.000181194041
C             7.477042660038                 2.0      4.308951991638
H             7.847919255067      1.995071324117      5.324896413822
C             8.372887204471                 2.0      3.242077055618
H             9.437699869467      1.989022435564      3.429948354692
C             7.895558833826      2.001377484826      1.932957724898
H             8.591301026163      1.998738985795       1.10476560925
C              6.52322392219      2.000507818264      1.690410064202
H             6.153262000061       2.00169760104      0.673888754466
C             5.627032788156      1.998018993132      2.758082275697
H             4.561701972428      1.998538981323      2.570331809354
C              6.10425459132      2.000095703779      4.067520887947
H             5.409107872465      2.000181194041       4.89634963155
