24
-0.265851592473601
C             0.697092438124      1.206228481101                   0
H             1.238751481843      2.142336379831      0.004928675883
C             1.394066202537                   0                   0
H             2.475325479251      0.000114333064      0.010977564436
C             0.696663336265       -1.2063436648     -0.001377484826
H             1.238021589736     -2.142768045099      0.001261014205
C             -0.69694068372     -1.206903024974     -0.000507818264
H            -1.237799125947      -2.14373787832      -0.00169760104
C            -1.394117326826      0.000170803848      0.001981006868
H            -2.475865900014      0.000265443726      0.001461018677
C             -0.69676396638      1.206847404824      -9.5703779e-05
H            -1.237425243665      2.143795338383     -0.000181194041
C             5.000585519651      2.395512881149      7.067230693324
H             5.001622062336       3.08692671507      7.898893272375
C             6.207296745954      1.948044241037      6.533958333897
H             7.143637581134      2.287208617599      6.955236756699
C             6.206499979491      1.053422685445      5.465646895043
H             7.143542169694      0.704110933164      5.053458135137
C             4.999883175455      0.604549404529      4.932053510883
H             4.999903451308     -0.089875953438      4.102618622325
C             3.792573577189      1.050516870077      5.467408764689
H             2.855704512361      0.703300597539      5.052803566467
C             3.793161002261      1.947953917764      6.533701802163
H              2.85646063451      2.295825402295      6.948145894376
