24
-0.460290150696889
C             0.697092438124      1.206228481101                   0
H             1.238751481843      2.142336379831      0.004928675883
C             1.394066202537                   0                   0
H             2.475325479251      0.000114333064      0.010977564436
C             0.696663336265       -1.2063436648     -0.001377484826
H             1.238021589736     -2.142768045099      0.001261014205
C             -0.69694068372     -1.206903024974     -0.000507818264
H            -1.237799125947      -2.14373787832      -0.00169760104
C            -1.394117326826      0.000170803848      0.001981006868
H            -2.475865900014      0.000265443726      0.001461018677
C             -0.69676396638      1.206847404824      -9.5703779e-05
H            -1.237425243665      2.143795338383     -0.000181194041
C             3.977042660038      0.654475995819      7.133585677093
H             4.347919255067      1.158179848389      8.015883693479
C             4.872887204471      0.121038527809      6.209644879838
H             5.937699869467      0.205467327673      6.377834979697
C             4.395558833826     -0.532328200699      5.075225540436
H             5.091301026163     -0.948709265711      4.359309378587
C              3.02322392219     -0.654355184382      4.865607937926
H             2.653262000061     -1.161585457141      3.984679768819
C             2.127032788156     -0.122674464424      5.791483608561
H             1.061701972428     -0.216099374613      5.628626941041
C              2.60425459132      0.533843325878      6.924452356144
H             1.909107872465      0.948331734417      7.642196358359
