24
-0.442094460479232
C             0.697092438124      1.206228481101                   0
H             1.238751481843      2.142336379831      0.004928675883
C             1.394066202537                   0                   0
H             2.475325479251      0.000114333064      0.010977564436
C             0.696663336265       -1.2063436648     -0.001377484826
H             1.238021589736     -2.142768045099      0.001261014205
C             -0.69694068372     -1.206903024974     -0.000507818264
H            -1.237799125947      -2.14373787832      -0.00169760104
C            -1.394117326826      0.000170803848      0.001981006868
H            -2.475865900014      0.000265443726      0.001461018677
C             -0.69676396638      1.206847404824      -9.5703779e-05
H            -1.237425243665      2.143795338383     -0.000181194041
C             6.742498182121      2.688103419607      4.185951829135
H             6.931323430794      3.607879916469      4.722676181888
C             7.809993723411      1.912919806088      3.738399361199
H             8.826005982685      2.227791046608      3.932866156237
C             7.567243229395      0.725319444429      3.051147390235
H             8.396229586147      0.122289509281      2.706034571099
C             6.257875127965      0.311646496656      2.813317406929
H             6.070050831728     -0.610353904073      2.279626384563
C             5.189899817115      1.086213547335      3.263387749864
H               4.1733562966      0.766138651686      3.077991992056
C             5.432489919993      2.275797285885      3.947796262637
H             4.603979440859      2.878183226123      4.295485231738
