24
-0.763769881076961
C             0.697092438124      1.206228481101                   0
H             1.238751481843      2.142336379831      0.004928675883
C             1.394066202537                   0                   0
H             2.475325479251      0.000114333064      0.010977564436
C             0.696663336265       -1.2063436648     -0.001377484826
H             1.238021589736     -2.142768045099      0.001261014205
C             -0.69694068372     -1.206903024974     -0.000507818264
H            -1.237799125947      -2.14373787832      -0.00169760104
C            -1.394117326826      0.000170803848      0.001981006868
H            -2.475865900014      0.000265443726      0.001461018677
C             -0.69676396638      1.206847404824      -9.5703779e-05
H            -1.237425243665      2.143795338383     -0.000181194041
C             4.000585519651      0.241921557829      6.872005332691
H             4.001622062336      0.424872213008      7.937953170487
C             5.207296745954      0.121038527809      6.186443602235
H             6.143637581134      0.204124282569       6.72086360673
C             5.206499979491      -0.11957074668      4.813947979239
H             6.143542169694     -0.215989218042      4.282326165865
C             3.999883175455     -0.241509718954      4.127405912807
H             3.999903451308     -0.428182275706      3.061881549547
C             2.792573577189     -0.122968191431      4.814020895426
H             1.855704512361     -0.216363704945      4.281354124956
C             2.793161002261      0.121088571427      6.186176277601
H              1.85646063451      0.215132068176      6.719031132171
