24
-0.451504585446012
C             0.697092438124      1.206228481101                   0
H             1.238751481843      2.142336379831      0.004928675883
C             1.394066202537                   0                   0
H             2.475325479251      0.000114333064      0.010977564436
C             0.696663336265       -1.2063436648     -0.001377484826
H             1.238021589736     -2.142768045099      0.001261014205
C             -0.69694068372     -1.206903024974     -0.000507818264
H            -1.237799125947      -2.14373787832      -0.00169760104
C            -1.394117326826      0.000170803848      0.001981006868
H            -2.475865900014      0.000265443726      0.001461018677
C             -0.69676396638      1.206847404824      -9.5703779e-05
H            -1.237425243665      2.143795338383     -0.000181194041
C             5.242498182121      2.469218685831      6.289167744106
H             5.431323430794      2.828808596396      7.291543387883
C             6.309993723411      2.163074767372      5.448044241037
H             7.326005982685      2.279279285124        5.7994097808
C             6.067243229395      1.695077161345      4.158203889923
H             6.896229586147      1.454963674575      3.506211961992
C             4.757875127965      1.531059464916      3.710111707514
H             4.570050831728      1.167816157962      2.708630231774
C             3.689899817115      1.835112609985       4.55276769578
H               2.6733562966      1.709091110799      4.205006128639
C             3.932489919993      2.306457310552      5.841704721638
H             3.103979440859      2.544421551321      6.495256142985
