24
-0.584281160036954
C             0.697092438124      1.206228481101                   0
H             1.238751481843      2.142336379831      0.004928675883
C             1.394066202537                   0                   0
H             2.475325479251      0.000114333064      0.010977564436
C             0.696663336265       -1.2063436648     -0.001377484826
H             1.238021589736     -2.142768045099      0.001261014205
C             -0.69694068372     -1.206903024974     -0.000507818264
H            -1.237799125947      -2.14373787832      -0.00169760104
C            -1.394117326826      0.000170803848      0.001981006868
H            -2.475865900014      0.000265443726      0.001461018677
C             -0.69676396638      1.206847404824      -9.5703779e-05
H            -1.237425243665      2.143795338383     -0.000181194041
C             5.977042660038      3.289066069686      4.227297128001
H             6.347919255067      4.288720157697      4.408567823746
C             6.872887204471      2.238399361199      4.042036239563
H             7.937699869467      2.421510239036      4.085470538849
C             6.395558833826      0.949407692417      3.813353495699
H             7.091301026163      0.133339505395       3.67213785836
C              5.02322392219      0.710393859675      3.772091990794
H             4.653262000061     -0.290477603644      3.594403210497
C             4.127032788156      1.761413551282      3.959942338952
H             3.061701972428      1.576605731399      3.926827724213
C              4.60425459132       3.05131946574       4.18527880699
H             3.909107872465      3.867571283587      4.329119216442
