24
-1.11494807658709
C             0.697092438124      1.206228481101                   0
H             1.238751481843      2.142336379831      0.004928675883
C             1.394066202537                   0                   0
H             2.475325479251      0.000114333064      0.010977564436
C             0.696663336265       -1.2063436648     -0.001377484826
H             1.238021589736     -2.142768045099      0.001261014205
C             -0.69694068372     -1.206903024974     -0.000507818264
H            -1.237799125947      -2.14373787832      -0.00169760104
C            -1.394117326826      0.000170803848      0.001981006868
H            -2.475865900014      0.000265443726      0.001461018677
C             -0.69676396638      1.206847404824      -9.5703779e-05
H            -1.237425243665      2.143795338383     -0.000181194041
C             1.977042660038      0.947687947786      7.230012527505
H             2.347919255067      1.290529964315      8.186373710592
C             2.872887204471      0.582795229258      6.227478022825
H             3.937699869467        0.6367354616      6.407773844385
C             2.395558833826      0.136344460461      4.996837120462
H             3.091301026163     -0.149393303703      4.219493520611
C              1.02322392219      0.052571055536      4.769214316999
H             0.653262000061     -0.293981678419      3.813589813694
C             0.127032788156      0.415397727725      5.773349243888
H            -0.938298027572      0.351671915383      5.596743669681
C              0.60425459132      0.865203579234      7.003108768319
H            -0.090892127535      1.148760039481      7.781923783185
