24
-0.197316628277016
C             0.697092438124      1.206228481101                   0
H             1.238751481843      2.142336379831      0.004928675883
C             1.394066202537                   0                   0
H             2.475325479251      0.000114333064      0.010977564436
C             0.696663336265       -1.2063436648     -0.001377484826
H             1.238021589736     -2.142768045099      0.001261014205
C             -0.69694068372     -1.206903024974     -0.000507818264
H            -1.237799125947      -2.14373787832      -0.00169760104
C            -1.394117326826      0.000170803848      0.001981006868
H            -2.475865900014      0.000265443726      0.001461018677
C             -0.69676396638      1.206847404824      -9.5703779e-05
H            -1.237425243665      2.143795338383     -0.000181194041
C             2.742498182121       0.88184267322      8.050939173913
H             2.931323430794      1.562579320038      8.869877176875
C             3.809993723411      0.306480311071      7.365249011779
H             4.826005982685      0.535850931174      7.655680330876
C             3.567243229395     -0.574444967613      6.313260160135
H             4.396229586147      -1.02307221192      5.782711805806
C             2.257875127965     -0.881827739076      5.948288598934
H             2.070050831728     -1.565691632042      5.131440374233
C             1.189899817115     -0.307905920447      6.636133912712
H               0.1733562966     -0.545268854329      6.352446825491
C             1.432489919993      0.575855642844      7.686129142526
H             0.603979440859      1.022996634706      8.218878026736
