24
-0.477692983295439
C             0.697092438124      1.206228481101                   0
H             1.238751481843      2.142336379831      0.004928675883
C             1.394066202537                   0                   0
H             2.475325479251      0.000114333064      0.010977564436
C             0.696663336265       -1.2063436648     -0.001377484826
H             1.238021589736     -2.142768045099      0.001261014205
C             -0.69694068372     -1.206903024974     -0.000507818264
H            -1.237799125947      -2.14373787832      -0.00169760104
C            -1.394117326826      0.000170803848      0.001981006868
H            -2.475865900014      0.000265443726      0.001461018677
C             -0.69676396638      1.206847404824      -9.5703779e-05
H            -1.237425243665      2.143795338383     -0.000181194041
C             5.500585519651      3.895512881149      5.067230693324
H             5.501622062336       4.58692671507      5.898893272375
C             6.707296745954      3.448044241037      4.533958333897
H             7.643637581134      3.787208617599      4.955236756699
C             6.706499979491      2.553422685445      3.465646895043
H             7.643542169694      2.204110933164      3.053458135137
C             5.499883175455      2.104549404529      2.932053510883
H             5.499903451308      1.410124046562      2.102618622325
C             4.292573577189      2.550516870077      3.467408764689
H             3.355704512361      2.203300597539      3.052803566467
C             4.293161002261      3.447953917764      4.533701802163
H              3.35646063451      3.795825402295      4.948145894376
