24
-1.34027658106575
C             0.697092438124      1.206228481101                   0
H             1.238751481843      2.142336379831      0.004928675883
C             1.394066202537                   0                   0
H             2.475325479251      0.000114333064      0.010977564436
C             0.696663336265       -1.2063436648     -0.001377484826
H             1.238021589736     -2.142768045099      0.001261014205
C             -0.69694068372     -1.206903024974     -0.000507818264
H            -1.237799125947      -2.14373787832      -0.00169760104
C            -1.394117326826      0.000170803848      0.001981006868
H            -2.475865900014      0.000265443726      0.001461018677
C             -0.69676396638      1.206847404824      -9.5703779e-05
H            -1.237425243665      2.143795338383     -0.000181194041
C             3.500585519651                 1.0      5.393170726464
H             3.501622062336      0.995071324117      6.474693469307
C             4.707296745954                 1.0      4.697033101268
H             5.643637581134      0.989022435564      5.237761754963
C             4.706499979491      1.001377484826      3.303607408721
H             5.643542169694      0.998738985795      2.763319233395
C             3.499883175455      1.000507818264      2.606320978608
H             3.499903451308       1.00169760104      1.524568975346
C             2.292573577189      0.998018993132      3.303089257058
H             1.355704512361      0.998538981323      2.762296931003
C             2.293161002261      1.000095703779      4.696778527879
H              1.35646063451      1.000181194041      5.237868601722
