24
-1.87387026234529
C             0.697092438124      1.206228481101                   0
H             1.238751481843      2.142336379831      0.004928675883
C             1.394066202537                   0                   0
H             2.475325479251      0.000114333064      0.010977564436
C             0.696663336265       -1.2063436648     -0.001377484826
H             1.238021589736     -2.142768045099      0.001261014205
C             -0.69694068372     -1.206903024974     -0.000507818264
H            -1.237799125947      -2.14373787832      -0.00169760104
C            -1.394117326826      0.000170803848      0.001981006868
H            -2.475865900014      0.000265443726      0.001461018677
C             -0.69676396638      1.206847404824      -9.5703779e-05
H            -1.237425243665      2.143795338383     -0.000181194041
C             1.477042660038      1.808951991638                 4.0
H             1.847919255067      2.824896413822      4.004928675883
C             2.372887204471      0.742077055618                 4.0
H             3.437699869467      0.929948354692      4.010977564436
C             1.895558833826     -0.567042275102      3.998622515174
H             2.591301026163      -1.39523439075      4.001261014205
C              0.52322392219     -0.809589935798      3.999492181736
H             0.153262000061     -1.826111245534       3.99830239896
C            -0.372967211844      0.258082275697      4.001981006868
H            -1.438298027572      0.070331809354      4.001461018677
C              0.10425459132      1.567520887947      3.999904296221
H            -0.590892127535       2.39634963155      3.999818805959
