24
-0.369626458104463
C             0.697092438124      1.206228481101                   0
H             1.238751481843      2.142336379831      0.004928675883
C             1.394066202537                   0                   0
H             2.475325479251      0.000114333064      0.010977564436
C             0.696663336265       -1.2063436648     -0.001377484826
H             1.238021589736     -2.142768045099      0.001261014205
C             -0.69694068372     -1.206903024974     -0.000507818264
H            -1.237799125947      -2.14373787832      -0.00169760104
C            -1.394117326826      0.000170803848      0.001981006868
H            -2.475865900014      0.000265443726      0.001461018677
C             -0.69676396638      1.206847404824      -9.5703779e-05
H            -1.237425243665      2.143795338383     -0.000181194041
C             7.477042660038      2.308951991638                 3.0
H             7.847919255067      3.324896413822      3.004928675883
C             8.372887204471      1.242077055618                 3.0
H             9.437699869467      1.429948354692      3.010977564436
C             7.895558833826     -0.067042275102      2.998622515174
H             8.591301026163      -0.89523439075      3.001261014205
C              6.52322392219     -0.309589935798      2.999492181736
H             6.153262000061     -1.326111245534       2.99830239896
C             5.627032788156      0.758082275697      3.001981006868
H             4.561701972428      0.570331809354      3.001461018677
C              6.10425459132      2.067520887947      2.999904296221
H             5.409107872465       2.89634963155      2.999818805959
