24
-0.786102236130053
C             0.697092438124      1.206228481101                   0
H             1.238751481843      2.142336379831      0.004928675883
C             1.394066202537                   0                   0
H             2.475325479251      0.000114333064      0.010977564436
C             0.696663336265       -1.2063436648     -0.001377484826
H             1.238021589736     -2.142768045099      0.001261014205
C             -0.69694068372     -1.206903024974     -0.000507818264
H            -1.237799125947      -2.14373787832      -0.00169760104
C            -1.394117326826      0.000170803848      0.001981006868
H            -2.475865900014      0.000265443726      0.001461018677
C             -0.69676396638      1.206847404824      -9.5703779e-05
H            -1.237425243665      2.143795338383     -0.000181194041
C             4.242498182121      0.738228570193      6.851061359051
H             4.431323430794      0.918294798144       7.90065079715
C             5.309993723411      0.582795229258      5.969555078443
H             6.326005982685      0.636220353601      6.335761288887
C             5.067243229395      0.345885984904       4.61804336908
H             5.896229586147      0.222637571668      3.934261394141
C             3.757875127965      0.262170476731      4.148277339689
H             3.570050831728      0.078351085043      3.098934079579
C             2.689899817115      0.415278694561       5.03092976461
H               1.6733562966      0.351559907513      4.666568073409
C             2.932489919993      0.655641044353      6.382133089126
H             2.103979440859      0.776502060273      7.067077652621
