24
-0.248874775731386
C             0.697092438124      1.206228481101                   0
H             1.238751481843      2.142336379831      0.004928675883
C             1.394066202537                   0                   0
H             2.475325479251      0.000114333064      0.010977564436
C             0.696663336265       -1.2063436648     -0.001377484826
H             1.238021589736     -2.142768045099      0.001261014205
C             -0.69694068372     -1.206903024974     -0.000507818264
H            -1.237799125947      -2.14373787832      -0.00169760104
C            -1.394117326826      0.000170803848      0.001981006868
H            -2.475865900014      0.000265443726      0.001461018677
C             -0.69676396638      1.206847404824      -9.5703779e-05
H            -1.237425243665      2.143795338383     -0.000181194041
C             3.000585519651      2.706521240926      7.196585363232
H             3.001622062336      3.640683073058      7.741615093175
C             4.207296745954      2.103648372977      6.848516550634
H             5.143637581134      2.566444341413      7.128387727155
C             4.206499979491      0.897595067358      6.150610767508
H             5.143542169694      0.428372532646      5.882751687033
C             2.999883175455      0.293292471885      5.802720705787
H             2.999903451308     -0.642937352146      5.260814322047
C             1.792573577189      0.895467089008      6.153260230802
H             0.855704512361      0.427387190568      5.882413744791
C             1.793161002261      2.103475757844      6.848306382036
H              0.85646063451      2.572116252659      7.118777382218
