24
-0.920324716955815
C             0.697092438124      1.206228481101                   0
H             1.238751481843      2.142336379831      0.004928675883
C             1.394066202537                   0                   0
H             2.475325479251      0.000114333064      0.010977564436
C             0.696663336265       -1.2063436648     -0.001377484826
H             1.238021589736     -2.142768045099      0.001261014205
C             -0.69694068372     -1.206903024974     -0.000507818264
H            -1.237799125947      -2.14373787832      -0.00169760104
C            -1.394117326826      0.000170803848      0.001981006868
H            -2.475865900014      0.000265443726      0.001461018677
C             -0.69676396638      1.206847404824      -9.5703779e-05
H            -1.237425243665      2.143795338383     -0.000181194041
C             5.000585519651                 2.5      4.393170726464
H             5.001622062336      2.495071324117      5.474693469307
C             6.207296745954                 2.5      3.697033101269
H             7.143637581134      2.489022435564      4.237761754963
C             6.206499979491      2.501377484826      2.303607408721
H             7.143542169694      2.498738985795      1.763319233395
C             4.999883175455      2.500507818264      1.606320978608
H             4.999903451308       2.50169760104      0.524568975346
C             3.792573577189      2.498018993132      2.303089257058
H             2.855704512361      2.498538981323      1.762296931003
C             3.793161002261      2.500095703779      3.696778527879
H              2.85646063451      2.500181194041      4.237868601722
