24
-0.915026783982593
C             0.697092438124      1.206228481101                   0
H             1.238751481843      2.142336379831      0.004928675883
C             1.394066202537                   0                   0
H             2.475325479251      0.000114333064      0.010977564436
C             0.696663336265       -1.2063436648     -0.001377484826
H             1.238021589736     -2.142768045099      0.001261014205
C             -0.69694068372     -1.206903024974     -0.000507818264
H            -1.237799125947      -2.14373787832      -0.00169760104
C            -1.394117326826      0.000170803848      0.001981006868
H            -2.475865900014      0.000265443726      0.001461018677
C             -0.69676396638      1.206847404824      -9.5703779e-05
H            -1.237425243665      2.143795338383     -0.000181194041
C             4.742498182121       2.88184267322      5.550939173913
H             4.931323430794      3.562579320038      6.369877176875
C             5.809993723411      2.306480311071      4.865249011779
H             6.826005982685      2.535850931174      5.155680330876
C             5.567243229395      1.425555032387      3.813260160135
H             6.396229586147       0.97692778808      3.282711805806
C             4.257875127965      1.118172260924      3.448288598934
H             4.070050831728      0.434308367958      2.631440374233
C             3.189899817115      1.692094079553      4.136133912712
H               2.1733562966      1.454731145671      3.852446825491
C             3.432489919993      2.575855642844      5.186129142526
H             2.603979440859      3.022996634706      5.718878026736
