24
-0.0753901862869807
C             0.697092438124      1.206228481101                   0
H             1.238751481843      2.142336379831      0.004928675883
C             1.394066202537                   0                   0
H             2.475325479251      0.000114333064      0.010977564436
C             0.696663336265       -1.2063436648     -0.001377484826
H             1.238021589736     -2.142768045099      0.001261014205
C             -0.69694068372     -1.206903024974     -0.000507818264
H            -1.237799125947      -2.14373787832      -0.00169760104
C            -1.394117326826      0.000170803848      0.001981006868
H            -2.475865900014      0.000265443726      0.001461018677
C             -0.69676396638      1.206847404824      -9.5703779e-05
H            -1.237425243665      2.143795338383     -0.000181194041
C             1.477042660038      1.133585677093      7.654475995819
H             1.847919255067      2.010955017596      8.166716565433
C             2.372887204471      0.209644879838      7.121038527809
H             3.437699869467      0.366857415261      7.224481027019
C             1.895558833826     -0.923396974738      6.465285925596
H             2.591301026163     -1.641951635618      6.053474874961
C              0.52322392219      -1.13388424381      6.344765248584
H             0.153262000061     -2.013622630141      5.835474211607
C            -0.372967211844     -0.210497398307      6.880756740121
H            -1.438298027572     -0.372834077636      6.786431183967
C              0.10425459132      0.924548059923       7.53367756207
H            -0.590892127535        1.6423775524      7.948017897132
