24
-0.431274950293307
C             0.697092438124      1.206228481101                   0
H             1.238751481843      2.142336379831      0.004928675883
C             1.394066202537                   0                   0
H             2.475325479251      0.000114333064      0.010977564436
C             0.696663336265       -1.2063436648     -0.001377484826
H             1.238021589736     -2.142768045099      0.001261014205
C             -0.69694068372     -1.206903024974     -0.000507818264
H            -1.237799125947      -2.14373787832      -0.00169760104
C            -1.394117326826      0.000170803848      0.001981006868
H            -2.475865900014      0.000265443726      0.001461018677
C             -0.69676396638      1.206847404824      -9.5703779e-05
H            -1.237425243665      2.143795338383     -0.000181194041
C             6.977042660038      1.947687947786      4.730012527505
H             7.347919255067      2.290529964315      5.686373710592
C             7.872887204471      1.582795229258      3.727478022825
H             8.937699869467        1.6367354616      3.907773844385
C             7.395558833826      1.136344460461      2.496837120462
H             8.091301026163      0.850606696297      1.719493520611
C              6.02322392219      1.052571055536      2.269214316999
H             5.653262000061      0.706018321581      1.313589813694
C             5.127032788156      1.415397727725      3.273349243888
H             4.061701972428      1.351671915383      3.096743669681
C              5.60425459132      1.865203579234      4.503108768319
H             4.909107872465      2.148760039481      5.281923783185
