24
-0.906836348258594
C             0.697092438124      1.206228481101                   0
H             1.238751481843      2.142336379831      0.004928675883
C             1.394066202537                   0                   0
H             2.475325479251      0.000114333064      0.010977564436
C             0.696663336265       -1.2063436648     -0.001377484826
H             1.238021589736     -2.142768045099      0.001261014205
C             -0.69694068372     -1.206903024974     -0.000507818264
H            -1.237799125947      -2.14373787832      -0.00169760104
C            -1.394117326826      0.000170803848      0.001981006868
H            -2.475865900014      0.000265443726      0.001461018677
C             -0.69676396638      1.206847404824      -9.5703779e-05
H            -1.237425243665      2.143795338383     -0.000181194041
C             5.000585519651      2.809152251153      4.476492451542
H             5.001622062336      3.823765485383      4.851026455417
C             6.207296745954      2.154996861706      4.238399361199
H             7.143637581134      2.659361039268       4.43365498913
C             6.206499979491      0.846076148363      3.760525293794
H             7.143542169694      0.337468917094      3.578215232701
C             4.999883175455      0.190543791929      3.522856508278
H             4.999903451308      -0.82556365338      3.151757502985
C             3.792573577189      0.844440573258       3.76350402535
H             2.855704512361      0.336439861522      3.578053527417
C             3.793161002261       2.15479037359      4.238222359836
H              2.85646063451  2.6632779625519998      4.423205729876
