24
-1.38175687126817
C             0.697092438124      1.206228481101                   0
H             1.238751481843      2.142336379831      0.004928675883
C             1.394066202537                   0                   0
H             2.475325479251      0.000114333064      0.010977564436
C             0.696663336265       -1.2063436648     -0.001377484826
H             1.238021589736     -2.142768045099      0.001261014205
C             -0.69694068372     -1.206903024974     -0.000507818264
H            -1.237799125947      -2.14373787832      -0.00169760104
C            -1.394117326826      0.000170803848      0.001981006868
H            -2.475865900014      0.000265443726      0.001461018677
C             -0.69676396638      1.206847404824      -9.5703779e-05
H            -1.237425243665      2.143795338383     -0.000181194041
C             1.500585519651      1.872005332691      4.741921557829
H             1.501622062336      2.936241459317      4.934579809451
C             2.707296745954      1.186443602235      4.621038527809
H             3.643637581134       1.71705113861      4.725745863701
C             2.706499979491     -0.185573625302      4.377716137847
H             3.643542169694     -0.718111779773      4.286494495089
C             1.499883175455     -0.872417723761      4.257490074319
H             1.499903451308     -1.937528879799      4.068474102963
C             0.292573577189     -0.186667101039      4.380933630414
H            -0.644295487639     -0.719153281506      4.286513940096
C             0.293161002261      1.186209515174       4.62090007178
H             -0.64353936549      1.719094060201      4.714775185584
