24
-0.618599940970702
C             0.697092438124      1.206228481101                   0
H             1.238751481843      2.142336379831      0.004928675883
C             1.394066202537                   0                   0
H             2.475325479251      0.000114333064      0.010977564436
C             0.696663336265       -1.2063436648     -0.001377484826
H             1.238021589736     -2.142768045099      0.001261014205
C             -0.69694068372     -1.206903024974     -0.000507818264
H            -1.237799125947      -2.14373787832      -0.00169760104
C            -1.394117326826      0.000170803848      0.001981006868
H            -2.475865900014      0.000265443726      0.001461018677
C             -0.69676396638      1.206847404824      -9.5703779e-05
H            -1.237425243665      2.143795338383     -0.000181194041
C             5.500585519651      1.196585363232      5.706521240926
H             5.501622062336      1.733078376132      6.645611748941
C             6.707296745954      0.848516550634      5.103648372977
H             7.643637581134      1.109374027808      5.577421905849
C             6.706499979491      0.152996641213      3.896217582532
H             7.643542169694     -0.119432453639      3.429633546851
C             5.499883175455     -0.196399727179      3.292784653621
H             5.499903451308     -0.736245346701      2.355365046814
C             4.292573577189      0.149829026256      3.897448095876
H             3.355704512361     -0.120116813788      3.428848209245
C             4.293161002261      0.848472145843      5.103380054065
H              3.35646063451      1.119091219503      5.571935058618
