24
-0.895705844590996
C             0.697092438124      1.206228481101                   0
H             1.238751481843      2.142336379831      0.004928675883
C             1.394066202537                   0                   0
H             2.475325479251      0.000114333064      0.010977564436
C             0.696663336265       -1.2063436648     -0.001377484826
H             1.238021589736     -2.142768045099      0.001261014205
C             -0.69694068372     -1.206903024974     -0.000507818264
H            -1.237799125947      -2.14373787832      -0.00169760104
C            -1.394117326826      0.000170803848      0.001981006868
H            -2.475865900014      0.000265443726      0.001461018677
C             -0.69676396638      1.206847404824      -9.5703779e-05
H            -1.237425243665      2.143795338383     -0.000181194041
C             4.477042660038                 1.0      5.308951991638
H             4.847919255067      0.995071324117      6.324896413822
C             5.372887204471                 1.0      4.242077055618
H             6.437699869467      0.989022435564      4.429948354692
C             4.895558833826      1.001377484826      2.932957724898
H             5.591301026163      0.998738985795       2.10476560925
C              3.52322392219      1.000507818264      2.690410064202
H             3.153262000061       1.00169760104      1.673888754466
C             2.627032788156      0.998018993132      3.758082275697
H             1.561701972428      0.998538981323      3.570331809354
C              3.10425459132      1.000095703779      5.067520887947
H             2.409107872465      1.000181194041       5.89634963155
