24
-0.796536832292512
C             0.697092438124      1.206228481101                   0
H             1.238751481843      2.142336379831      0.004928675883
C             1.394066202537                   0                   0
H             2.475325479251      0.000114333064      0.010977564436
C             0.696663336265       -1.2063436648     -0.001377484826
H             1.238021589736     -2.142768045099      0.001261014205
C             -0.69694068372     -1.206903024974     -0.000507818264
H            -1.237799125947      -2.14373787832      -0.00169760104
C            -1.394117326826      0.000170803848      0.001981006868
H            -2.475865900014      0.000265443726      0.001461018677
C             -0.69676396638      1.206847404824      -9.5703779e-05
H            -1.237425243665      2.143795338383     -0.000181194041
C             4.977042660038      1.230012527505      4.947687947786
H             5.347919255067      2.183002297728       5.29979284503
C             5.872887204471      0.227478022825      4.582795229258
H             6.937699869467      0.400264748062      4.657366534189
C             5.395558833826     -1.002220624423      4.133755635809
H             6.091301026163     -1.781369063907      3.852976627783
C              4.02322392219      -1.23043831485      4.051616669385
H             3.653262000061     -2.185248958804      3.702827875241
C             3.127032788156     -0.228005844618      4.419120802796
H             2.061701972428     -0.404255725954      4.354417732322
C              3.60425459132      1.003174233559      4.865023714964
H             2.909107872465      1.782047727209      5.148419506075
