24
-1.23124444505715
C             0.697092438124      1.206228481101                   0
H             1.238751481843      2.142336379831      0.004928675883
C             1.394066202537                   0                   0
H             2.475325479251      0.000114333064      0.010977564436
C             0.696663336265       -1.2063436648     -0.001377484826
H             1.238021589736     -2.142768045099      0.001261014205
C             -0.69694068372     -1.206903024974     -0.000507818264
H            -1.237799125947      -2.14373787832      -0.00169760104
C            -1.394117326826      0.000170803848      0.001981006868
H            -2.475865900014      0.000265443726      0.001461018677
C             -0.69676396638      1.206847404824      -9.5703779e-05
H            -1.237425243665      2.143795338383     -0.000181194041
C             4.500585519651      0.976492451542      5.809152251153
H             4.501622062336      1.341763574702      6.827136898247
C             5.707296745954      0.738399361199      5.154996861706
H             6.643637581134      0.913023916541      5.666870135592
C             5.706499979491      0.263114118446      3.845133893248
H             6.643542169694      0.075845301214      3.338331501612
C             4.499883175455      0.023810894429      3.190196423779
H             4.499903451308     -0.345052050674      2.173275119118
C             3.292573577189      0.259780950278      3.845795661764
H             2.355704512361      0.075307710477      3.337439257157
C             3.293161002261      0.738402224106       5.15472490835
H              2.35646063451      0.923546263283      5.663154018529
