24
-1.1574470648707
C             0.697092438124      1.206228481101                   0
H             1.238751481843      2.142336379831      0.004928675883
C             1.394066202537                   0                   0
H             2.475325479251      0.000114333064      0.010977564436
C             0.696663336265       -1.2063436648     -0.001377484826
H             1.238021589736     -2.142768045099      0.001261014205
C             -0.69694068372     -1.206903024974     -0.000507818264
H            -1.237799125947      -2.14373787832      -0.00169760104
C            -1.394117326826      0.000170803848      0.001981006868
H            -2.475865900014      0.000265443726      0.001461018677
C             -0.69676396638      1.206847404824      -9.5703779e-05
H            -1.237425243665      2.143795338383     -0.000181194041
C             0.742498182121      0.469218685831      7.289167744106
H             0.931323430794      0.828808596396      8.291543387883
C             1.809993723411      0.163074767372      6.448044241037
H             2.826005982685      0.279279285124        6.7994097808
C             1.567243229395     -0.304922838655      5.158203889923
H             2.396229586147     -0.545036325425      4.506211961992
C             0.257875127965     -0.468940535084      4.710111707514
H             0.070050831728     -0.832183842038      3.708630231774
C            -0.810100182885     -0.164887390015       5.55276769578
H              -1.8266437034     -0.290908889201      5.205006128639
C            -0.567510080007      0.306457310552      6.841704721638
H            -1.396020559141      0.544421551321      7.495256142985
