24
-2.09015868394621
C             0.697092438124      1.206228481101                   0
H             1.238751481843      2.142336379831      0.004928675883
C             1.394066202537                   0                   0
H             2.475325479251      0.000114333064      0.010977564436
C             0.696663336265       -1.2063436648     -0.001377484826
H             1.238021589736     -2.142768045099      0.001261014205
C             -0.69694068372     -1.206903024974     -0.000507818264
H            -1.237799125947      -2.14373787832      -0.00169760104
C            -1.394117326826      0.000170803848      0.001981006868
H            -2.475865900014      0.000265443726      0.001461018677
C             -0.69676396638      1.206847404824      -9.5703779e-05
H            -1.237425243665      2.143795338383     -0.000181194041
C             1.742498182121      1.351061359051      4.238228570193
H             1.931323430794      2.398939085979      4.428002394587
C             2.809993723411      0.469555078443      4.082795229258
H             3.826005982685      0.831948820768      4.157841934732
C             2.567243229395     -0.881478235461      3.843172869431
H             3.396229586147     -1.566176551497        3.7251212848
C             1.257875127965     -1.351546296879      3.761170270004
H             1.070050831728     -2.400476349767      3.575007463711
C             0.189899817115     -0.469758231855      3.919180516406
H              -0.8266437034     -0.833939333052      3.854437552554
C             0.432489919993        0.8821663267      4.155452544706
H            -0.396020559141      1.567140580651      4.276145177681
