24
-0.499056150674689
C             0.697092438124      1.206228481101                   0
H             1.238751481843      2.142336379831      0.004928675883
C             1.394066202537                   0                   0
H             2.475325479251      0.000114333064      0.010977564436
C             0.696663336265       -1.2063436648     -0.001377484826
H             1.238021589736     -2.142768045099      0.001261014205
C             -0.69694068372     -1.206903024974     -0.000507818264
H            -1.237799125947      -2.14373787832      -0.00169760104
C            -1.394117326826      0.000170803848      0.001981006868
H            -2.475865900014      0.000265443726      0.001461018677
C             -0.69676396638      1.206847404824      -9.5703779e-05
H            -1.237425243665      2.143795338383     -0.000181194041
C             3.242498182121       1.38184267322      7.050939173913
H             3.431323430794      2.062579320038      7.869877176875
C             4.309993723411      0.806480311071      6.365249011779
H             5.326005982685      1.035850931174      6.655680330876
C             4.067243229395     -0.074444967613      5.313260160135
H             4.896229586147      -0.52307221192      4.782711805806
C             2.757875127965     -0.381827739076      4.948288598934
H             2.570050831728     -1.065691632042      4.131440374233
C             1.689899817115      0.192094079553      5.636133912712
H               0.6733562966     -0.045268854329      5.352446825491
C             1.932489919993      1.075855642844      6.686129142526
H             1.103979440859      1.522996634706      7.218878026736
