24
-0.853301798428058
C             0.697092438124      1.206228481101                   0
H             1.238751481843      2.142336379831      0.004928675883
C             1.394066202537                   0                   0
H             2.475325479251      0.000114333064      0.010977564436
C             0.696663336265       -1.2063436648     -0.001377484826
H             1.238021589736     -2.142768045099      0.001261014205
C             -0.69694068372     -1.206903024974     -0.000507818264
H            -1.237799125947      -2.14373787832      -0.00169760104
C            -1.394117326826      0.000170803848      0.001981006868
H            -2.475865900014      0.000265443726      0.001461018677
C             -0.69676396638      1.206847404824      -9.5703779e-05
H            -1.237425243665      2.143795338383     -0.000181194041
C             6.197092438124      3.275348722103      3.924024625079
H             6.738751481843      3.873291695964      4.644292970851
C             6.894066202537                 2.5                 3.0
H             7.975325479251      2.491664189642      3.007143826612
C             6.196663336265      1.725632453839      2.075001708909
H             6.738021589736      1.121689257254      1.359355010466
C              4.80305931628      1.724606700813      2.075132225047
H             4.262200874053      1.123332291244      1.356710313895
C             4.105882673174      2.498592251294      3.001404210008
H             3.024134099986      2.499051418699      3.001142466394
C              4.80323603362      3.275819871951      3.924437230955
H             4.262574756335      3.878143883905      4.642126036868
