24
-1.33552834597742
C             0.697092438124      1.206228481101                   0
H             1.238751481843      2.142336379831      0.004928675883
C             1.394066202537                   0                   0
H             2.475325479251      0.000114333064      0.010977564436
C             0.696663336265       -1.2063436648     -0.001377484826
H             1.238021589736     -2.142768045099      0.001261014205
C             -0.69694068372     -1.206903024974     -0.000507818264
H            -1.237799125947      -2.14373787832      -0.00169760104
C            -1.394117326826      0.000170803848      0.001981006868
H            -2.475865900014      0.000265443726      0.001461018677
C             -0.69676396638      1.206847404824      -9.5703779e-05
H            -1.237425243665      2.143795338383     -0.000181194041
C             4.742498182121      3.050939173913       3.88184267322
H             4.931323430794      3.863540993296      4.570130489583
C             5.809993723411      2.365249011779      3.306480311071
H             6.826005982685      2.641567846068      3.552669535645
C             5.567243229395      1.315031020492      2.423444603194
H             6.396229586147      0.781090677193      1.978859773929
C             4.257875127965       0.94894143751      2.117394238205
H             4.070050831728      0.133622768063      1.431707492272
C             3.189899817115      1.633587179374      2.695129158159
H               2.1733562966      1.350568576085      2.456969556149
C             3.432489919993      2.686252176933      3.575709016148
H             2.603979440859      3.219110965305      4.022719029329
